<?xml version="1.0" encoding="ISO-8859-1"?>
<febio_spec version="4.0">
	<Module type="solid" />
	<Control>
		<analysis>STATIC</analysis>
		<time_steps>20</time_steps>
		<step_size>0.05</step_size>
		<plot_zero_state>0</plot_zero_state>
		<plot_range>0,-1</plot_range>
		<plot_level>PLOT_MAJOR_ITRS</plot_level>
		<output_level>OUTPUT_MAJOR_ITRS</output_level>
		<plot_stride>1</plot_stride>
		<adaptor_re_solve>1</adaptor_re_solve>
		<time_stepper type="default">
			<max_retries>3</max_retries>
			<opt_iter>14</opt_iter>
			<dtmin>0</dtmin>
			<dtmax>0.1</dtmax>
			<aggressiveness>0</aggressiveness>
			<cutback>0.5</cutback>
			<dtforce>0</dtforce>
		</time_stepper>
		<solver type="solid">
			<symmetric_stiffness>symmetric</symmetric_stiffness>
			<equation_scheme>staggered</equation_scheme>
			<equation_order>default</equation_order>
			<optimize_bw>0</optimize_bw>
			<lstol>0.9</lstol>
			<lsmin>0.01</lsmin>
			<lsiter>5</lsiter>
			<max_refs>15</max_refs>
			<check_zero_diagonal>0</check_zero_diagonal>
			<zero_diagonal_tol>0</zero_diagonal_tol>
			<force_partition>0</force_partition>
			<reform_each_time_step>1</reform_each_time_step>
			<reform_augment>0</reform_augment>
			<diverge_reform>1</diverge_reform>
			<min_residual>1e-20</min_residual>
			<max_residual>0</max_residual>
			<dtol>0.001</dtol>
			<etol>0.01</etol>
			<rtol>0</rtol>
			<rhoi>-2</rhoi>
			<alpha>1</alpha>
			<beta>0.25</beta>
			<gamma>0.5</gamma>
			<logSolve>0</logSolve>
			<arc_length>0</arc_length>
			<arc_length_scale>0</arc_length_scale>
			<qn_method type="BFGS">
				<max_ups>10</max_ups>
				<max_buffer_size>0</max_buffer_size>
				<cycle_buffer>1</cycle_buffer>
				<cmax>100000</cmax>
			</qn_method>
		</solver>
	</Control>
	<Globals>
		<Constants>
			<T>0</T>
			<P>0</P>
			<R>0</R>
			<Fc>0</Fc>
		</Constants>
	</Globals>
	<Material>
		<material id="1" name="fix_mat" type="rigid body">
			<density>8e-09</density>
			<E>210000</E>
			<v>0.33</v>
		</material>
		<material id="2" name="main_body" type="Ogden unconstrained">
			<density>1.07e-09</density>
			<cp>0.001</cp>
			<c1>3.31</c1>
			<c2>3.115</c2>
			<c3>3.468</c3>
			<c4>0</c4>
			<c5>0</c5>
			<c6>0</c6>
			<m1>-0.322</m1>
			<m2>0.19</m2>
			<m3>0.145</m3>
			<m4>1</m4>
			<m5>1</m5>
			<m6>1</m6>
		</material>
		<material id="3" name="Material3" type="isotropic elastic">
			<density>8e-09</density>
			<E>210000</E>
			<v>0.33</v>
		</material>
		<material id="4" name="0" type="isotropic elastic">
			<density>1</density>
			<E>210000</E>
			<v>0.33</v>
		</material>
		<material id="5" name="1" type="Ogden">
			<density>1</density>
			<k>0</k>
			<pressure_model>default</pressure_model>
			<c1 type="map" />
			<c2>3</c2>
			<c3>0</c3>
			<c4>0</c4>
			<c5>0</c5>
			<c6>0</c6>
			<m1>4</m1>
			<m2>1</m2>
			<m3>1</m3>
			<m4>1</m4>
			<m5>1</m5>
			<m6>1</m6>
		</material>
	</Material>
	<Mesh>
		<Nodes name="fix_mat">
			<node id="1">-1,-41.8555489,49.118618</node>
			<node id="2">-1,-42,52.5</node>
			<node id="3">-1,-48.5950317,49.397541</node>
			<node id="4">-1,-49.9820976,50.7373848</node>
			<node id="5">-1,-45.819706,54.0962143</node>
			<node id="6">-1,-46.9462471,47.1996994</node>
			<node id="7">-1,-52.8747864,53.4024963</node>
			<node id="8">-1,-51.5,57</node>
			<node id="9">-1,-47,57</node>
			<node id="10">-1,-52.276638,46.0034332</node>
			<node id="11">-1,-48.7950935,43.2324524</node>
			<node id="12">-1,-51.0039444,43.1786652</node>
			<node id="13">-1,-56,47.5</node>
			<node id="14">-1,-56,52</node>
			<node id="15">-1,-41.7470818,50.0540962</node>
			<node id="16">-1,-42.1404495,51.2252007</node>
			<node id="17">-1,-47.8762589,52.4617424</node>
			<node id="18">-1,-44.3297768,53.018364</node>
			<node id="19">-1,-44.9314842,48.5220985</node>
			<node id="20">-1,-47.7874947,48.1236305</node>
<!-- ... 9366 like lines cut -->
		</Nodes>
		<Elements type="hex8" name="Part1">
			<elem id="1">858,666,645,665,938,751,730,750</elem>
			<elem id="2">858,834,815,666,938,914,895,751</elem>
			<elem id="3">858,835,816,834,938,915,896,914</elem>
			<elem id="4">858,860,836,835,938,940,916,915</elem>
			<elem id="5">860,859,837,836,940,939,917,916</elem>
			<elem id="6">859,838,817,837,939,918,897,917</elem>
			<elem id="7">859,667,646,838,939,752,731,918</elem>
			<elem id="8">860,647,667,859,940,732,752,939</elem>
			<elem id="9">858,665,647,860,938,750,732,940</elem>
			<elem id="10">689,666,815,668,774,751,895,753</elem>
			<elem id="11">689,669,645,666,774,754,730,751</elem>
			<elem id="12">689,690,670,669,774,775,755,754</elem>
			<elem id="13">690,671,648,670,775,756,733,755</elem>
			<elem id="14">690,672,649,671,775,757,734,756</elem>
			<elem id="15">689,673,672,690,774,758,757,775</elem>
			<elem id="16">689,668,650,673,774,753,735,758</elem>
			<elem id="17">861,840,818,839,941,920,898,919</elem>
			<elem id="18">861,820,819,840,941,900,899,920</elem>
			<elem id="19">861,863,841,820,941,943,921,900</elem>
			<elem id="20">863,862,842,841,943,942,922,921</elem>
<!-- ... 1994 like lines cut -->
		</Elements>
		<Elements type="hex8" name="Part2">
			<elem id="2015">230,231,232,233,156,157,158,159</elem>
			<elem id="2016">233,232,1398,1402,159,158,1301,1305</elem>
			<elem id="2017">1402,1398,1399,1401,1305,1301,1302,1304</elem>
			<elem id="2018">1401,1399,1400,1225,1304,1302,1303,1149</elem>
			<elem id="2019">1225,1400,1191,1224,1149,1303,1115,1148</elem>
			<elem id="2020">231,230,234,239,157,156,160,165</elem>
			<elem id="2021">239,234,235,238,165,160,161,164</elem>
			<elem id="2022">238,235,236,237,164,161,162,163</elem>
			<elem id="2023">237,236,99,100,163,162,45,46</elem>
			<elem id="2024">100,99,95,96,46,45,41,42</elem>
			<elem id="2025">97,98,1226,1233,43,44,1150,1157</elem>
			<elem id="2026">1233,1226,1227,1232,1157,1150,1151,1156</elem>
			<elem id="2027">1232,1227,1228,1231,1156,1151,1152,1155</elem>
			<elem id="2028">1231,1228,1229,1230,1155,1152,1153,1154</elem>
			<elem id="2029">1230,1229,1224,1191,1154,1153,1148,1115</elem>
			<elem id="2030">98,97,101,108,44,43,47,54</elem>
			<elem id="2031">108,101,102,107,54,47,48,53</elem>
			<elem id="2032">107,102,103,106,53,48,49,52</elem>
			<elem id="2033">106,103,104,105,52,49,50,51</elem>
			<elem id="2034">105,104,96,95,51,50,42,41</elem>
		</Elements>
		<Elements type="hex8" name="Part3">
			<elem id="2035">1234,1235,1238,1239,1158,1159,1162,1163</elem>
			<elem id="2036">1239,1238,1404,1409,1163,1162,1307,1312</elem>
			<elem id="2037">1409,1404,1405,1408,1312,1307,1308,1311</elem>
			<elem id="2038">1408,1405,1406,1407,1311,1308,1309,1310</elem>
			<elem id="2039">1407,1406,1363,1403,1310,1309,1266,1306</elem>
			<elem id="2040">1235,1234,1240,1247,1159,1158,1164,1171</elem>
			<elem id="2041">1247,1240,1241,1246,1171,1164,1165,1170</elem>
			<elem id="2042">1246,1241,1242,1245,1170,1165,1166,1169</elem>
			<elem id="2043">1245,1242,1243,1244,1169,1166,1167,1168</elem>
			<elem id="2044">1244,1243,1236,1237,1168,1167,1160,1161</elem>
			<elem id="2045">2608,2609,2804,2807,2526,2527,2694,2697</elem>
			<elem id="2046">2807,2804,2805,2806,2697,2694,2695,2696</elem>
			<elem id="2047">2806,2805,1410,1413,2696,2695,1313,1316</elem>
			<elem id="2048">1413,1410,1411,1412,1316,1313,1314,1315</elem>
			<elem id="2049">1412,1411,1403,1363,1315,1314,1306,1266</elem>
			<elem id="2050">2609,2608,2610,2614,2527,2526,2528,2532</elem>
			<elem id="2051">2614,2610,2611,2613,2532,2528,2529,2531</elem>
			<elem id="2052">2613,2611,2612,1250,2531,2529,2530,1174</elem>
			<elem id="2053">1250,2612,1248,1249,1174,2530,1172,1173</elem>
			<elem id="2054">1249,1248,1237,1236,1173,1172,1161,1160</elem>
		</Elements>
		<Elements type="hex8" name="Part4">
			<elem id="2055">410,616,617,415,319,513,514,324</elem>
			<elem id="2056">415,617,1620,1625,324,514,1505,1510</elem>
			<elem id="2057">1625,1620,1621,1624,1510,1505,1506,1509</elem>
			<elem id="2058">1624,1621,1622,1623,1509,1506,1507,1508</elem>
			<elem id="2059">1623,1622,1618,1619,1508,1507,1503,1504</elem>
			<elem id="2060">616,410,416,618,513,319,325,515</elem>
			<elem id="2061">618,416,417,422,515,325,326,331</elem>
			<elem id="2062">422,417,418,421,331,326,327,330</elem>
			<elem id="2063">421,418,419,420,330,327,328,329</elem>
			<elem id="2064">420,419,411,412,329,328,320,321</elem>
			<elem id="2065">413,414,1626,1633,322,323,1511,1518</elem>
			<elem id="2066">1633,1626,1627,1632,1518,1511,1512,1517</elem>
			<elem id="2067">1632,1627,1628,1631,1517,1512,1513,1516</elem>
			<elem id="2068">1631,1628,1629,1630,1516,1513,1514,1515</elem>
			<elem id="2069">1630,1629,1619,1618,1515,1514,1504,1503</elem>
			<elem id="2070">414,413,423,430,323,322,332,339</elem>
			<elem id="2071">430,423,424,429,339,332,333,338</elem>
			<elem id="2072">429,424,425,428,338,333,334,337</elem>
			<elem id="2073">428,425,426,427,337,334,335,336</elem>
			<elem id="2074">427,426,412,411,336,335,321,320</elem>
		</Elements>
		<Elements type="hex8" name="Part5">
			<elem id="2075">785,786,790,791,700,701,705,706</elem>
			<elem id="2076">791,790,2055,2060,706,705,1941,1946</elem>
			<elem id="2077">2060,2055,2056,2059,1946,1941,1942,1945</elem>
			<elem id="2078">2059,2056,2057,2058,1945,1942,1943,1944</elem>
			<elem id="2079">2058,2057,2053,2054,1944,1943,1939,1940</elem>
			<elem id="2080">786,785,792,799,701,700,707,714</elem>
			<elem id="2081">799,792,793,798,714,707,708,713</elem>
			<elem id="2082">798,793,794,797,713,708,709,712</elem>
			<elem id="2083">797,794,795,796,712,709,710,711</elem>
			<elem id="2084">796,795,787,788,711,710,702,703</elem>
			<elem id="2085">619,789,2061,1835,516,704,1947,1732</elem>
			<elem id="2086">1835,2061,2062,2067,1732,1947,1948,1953</elem>
			<elem id="2087">2067,2062,2063,2066,1953,1948,1949,1952</elem>
			<elem id="2088">2066,2063,2064,2065,1952,1949,1950,1951</elem>
			<elem id="2089">2065,2064,2054,2053,1951,1950,1940,1939</elem>
			<elem id="2090">789,619,620,806,704,516,517,721</elem>
			<elem id="2091">806,620,800,805,721,517,715,720</elem>
			<elem id="2092">805,800,801,804,720,715,716,719</elem>
			<elem id="2093">804,801,802,803,719,716,717,718</elem>
			<elem id="2094">803,802,788,787,718,717,703,702</elem>
		</Elements>
		<Elements type="hex8" name="Part6">
			<elem id="2095">1084,1085,1088,1089,1022,1023,1026,1027</elem>
			<elem id="2096">1089,1088,2452,2457,1027,1026,2369,2374</elem>
			<elem id="2097">2457,2452,2453,2456,2374,2369,2370,2373</elem>
			<elem id="2098">2456,2453,2454,2455,2373,2370,2371,2372</elem>
			<elem id="2099">2455,2454,2450,2451,2372,2371,2367,2368</elem>
			<elem id="2100">1085,1084,1090,1097,1023,1022,1028,1035</elem>
			<elem id="2101">1097,1090,1091,1096,1035,1028,1029,1034</elem>
			<elem id="2102">1096,1091,1092,1095,1034,1029,1030,1033</elem>
			<elem id="2103">1095,1092,1093,1094,1033,1030,1031,1032</elem>
			<elem id="2104">1094,1093,1086,1087,1032,1031,1024,1025</elem>
			<elem id="2105">950,951,2259,2264,870,871,2159,2164</elem>
			<elem id="2106">2264,2259,2260,2263,2164,2159,2160,2163</elem>
			<elem id="2107">2263,2260,2261,2262,2163,2160,2161,2162</elem>
			<elem id="2108">2262,2261,2458,2459,2162,2161,2375,2376</elem>
			<elem id="2109">2459,2458,2451,2450,2376,2375,2368,2367</elem>
			<elem id="2110">951,950,952,958,871,870,872,878</elem>
			<elem id="2111">958,952,953,957,878,872,873,877</elem>
			<elem id="2112">957,953,954,956,877,873,874,876</elem>
			<elem id="2113">956,954,955,1098,876,874,875,1036</elem>
			<elem id="2114">1098,955,1087,1086,1036,875,1025,1024</elem>
		</Elements>
		<Elements type="hex8" name="Part7">
			<elem id="2115">2808,2809,2810,2816,2698,2699,2700,2706</elem>
			<elem id="2116">2816,2810,2811,2815,2706,2700,2701,2705</elem>
			<elem id="2117">2815,2811,2812,2814,2705,2701,2702,2704</elem>
			<elem id="2118">2814,2812,2813,2620,2704,2702,2703,2538</elem>
			<elem id="2119">2620,2813,4103,2615,2538,2703,4019,2533</elem>
			<elem id="2120">2809,2808,2817,2822,2699,2698,2707,2712</elem>
			<elem id="2121">2822,2817,2818,2821,2712,2707,2708,2711</elem>
			<elem id="2122">2821,2818,2819,2820,2711,2708,2709,2710</elem>
			<elem id="2123">2820,2819,2621,2622,2710,2709,2539,2540</elem>
			<elem id="2124">2622,2621,2616,2617,2540,2539,2534,2535</elem>
			<elem id="2125">2618,2619,2623,2630,2536,2537,2541,2548</elem>
			<elem id="2126">2630,2623,2624,2629,2548,2541,2542,2547</elem>
			<elem id="2127">2629,2624,2625,2628,2547,2542,2543,2546</elem>
			<elem id="2128">2628,2625,2626,2627,2546,2543,2544,2545</elem>
			<elem id="2129">2627,2626,2615,4103,2545,2544,2533,4019</elem>
			<elem id="2130">2619,2618,2631,2638,2537,2536,2549,2556</elem>
			<elem id="2131">2638,2631,2632,2637,2556,2549,2550,2555</elem>
			<elem id="2132">2637,2632,2633,2636,2555,2550,2551,2554</elem>
			<elem id="2133">2636,2633,2634,2635,2554,2551,2552,2553</elem>
			<elem id="2134">2635,2634,2617,2616,2553,2552,2535,2534</elem>
		</Elements>
		<Elements type="hex8" name="Part8">
			<elem id="2135">3038,3280,3281,3050,2919,3162,3163,2931</elem>
			<elem id="2136">3050,3281,3044,3049,2931,3163,2925,2930</elem>
			<elem id="2137">3049,3044,3045,3048,2930,2925,2926,2929</elem>
			<elem id="2138">3048,3045,3046,3047,2929,2926,2927,2928</elem>
			<elem id="2139">3047,3046,4543,3039,2928,2927,4426,2920</elem>
			<elem id="2140">3280,3038,3051,3282,3162,2919,2932,3164</elem>
			<elem id="2141">3282,3051,3052,3057,3164,2932,2933,2938</elem>
			<elem id="2142">3057,3052,3053,3056,2938,2933,2934,2937</elem>
			<elem id="2143">3056,3053,3054,3055,2937,2934,2935,2936</elem>
			<elem id="2144">3055,3054,3040,3041,2936,2935,2921,2922</elem>
			<elem id="2145">3042,3043,3058,3065,2923,2924,2939,2946</elem>
			<elem id="2146">3065,3058,3059,3064,2946,2939,2940,2945</elem>
			<elem id="2147">3064,3059,3060,3063,2945,2940,2941,2944</elem>
			<elem id="2148">3063,3060,3061,3062,2944,2941,2942,2943</elem>
			<elem id="2149">3062,3061,3039,4543,2943,2942,2920,4426</elem>
			<elem id="2150">3043,3042,3066,3073,2924,2923,2947,2954</elem>
			<elem id="2151">3073,3066,3067,3072,2954,2947,2948,2953</elem>
			<elem id="2152">3072,3067,3068,3071,2953,2948,2949,2952</elem>
			<elem id="2153">3071,3068,3069,3070,2952,2949,2950,2951</elem>
			<elem id="2154">3070,3069,3041,3040,2951,2950,2922,2921</elem>
		</Elements>
		<Elements type="hex8" name="Part9">
			<elem id="2155">3518,3519,3524,3531,3396,3397,3402,3409</elem>
			<elem id="2156">3531,3524,3525,3530,3409,3402,3403,3408</elem>
			<elem id="2157">3530,3525,3526,3529,3408,3403,3404,3407</elem>
			<elem id="2158">3529,3526,3527,3528,3407,3404,3405,3406</elem>
			<elem id="2159">3528,3527,5023,3520,3406,3405,4905,3398</elem>
			<elem id="2160">3519,3518,3532,3539,3397,3396,3410,3417</elem>
			<elem id="2161">3539,3532,3533,3538,3417,3410,3411,3416</elem>
			<elem id="2162">3538,3533,3534,3537,3416,3411,3412,3415</elem>
			<elem id="2163">3537,3534,3535,3536,3415,3412,3413,3414</elem>
			<elem id="2164">3536,3535,3521,3522,3414,3413,3399,3400</elem>
			<elem id="2165">3283,3523,3540,3284,3165,3401,3418,3166</elem>
			<elem id="2166">3284,3540,3541,3546,3166,3418,3419,3424</elem>
			<elem id="2167">3546,3541,3542,3545,3424,3419,3420,3423</elem>
			<elem id="2168">3545,3542,3543,3544,3423,3420,3421,3422</elem>
			<elem id="2169">3544,3543,3520,5023,3422,3421,3398,4905</elem>
			<elem id="2170">3523,3283,3285,3553,3401,3165,3167,3431</elem>
			<elem id="2171">3553,3285,3547,3552,3431,3167,3425,3430</elem>
			<elem id="2172">3552,3547,3548,3551,3430,3425,3426,3429</elem>
			<elem id="2173">3551,3548,3549,3550,3429,3426,3427,3428</elem>
			<elem id="2174">3550,3549,3522,3521,3428,3427,3400,3399</elem>
		</Elements>
		<Elements type="hex8" name="Part10">
			<elem id="2175">3929,3930,3934,3941,3843,3844,3848,3855</elem>
			<elem id="2176">3941,3934,3935,3940,3855,3848,3849,3854</elem>
			<elem id="2177">3940,3935,3936,3939,3854,3849,3850,3853</elem>
			<elem id="2178">3939,3936,3937,3938,3853,3850,3851,3852</elem>
			<elem id="2179">3938,3937,5440,3931,3852,3851,5362,3845</elem>
			<elem id="2180">3930,3929,3942,3949,3844,3843,3856,3863</elem>
			<elem id="2181">3949,3942,3943,3948,3863,3856,3857,3862</elem>
			<elem id="2182">3948,3943,3944,3947,3862,3857,3858,3861</elem>
			<elem id="2183">3947,3944,3945,3946,3861,3858,3859,3860</elem>
			<elem id="2184">3946,3945,3932,3933,3860,3859,3846,3847</elem>
			<elem id="2185">3736,3737,3738,3743,3630,3631,3632,3637</elem>
			<elem id="2186">3743,3738,3739,3742,3637,3632,3633,3636</elem>
			<elem id="2187">3742,3739,3740,3741,3636,3633,3634,3635</elem>
			<elem id="2188">3741,3740,3950,3951,3635,3634,3864,3865</elem>
			<elem id="2189">3951,3950,3931,5440,3865,3864,3845,5362</elem>
			<elem id="2190">3737,3736,3744,3750,3631,3630,3638,3644</elem>
			<elem id="2191">3750,3744,3745,3749,3644,3638,3639,3643</elem>
			<elem id="2192">3749,3745,3746,3748,3643,3639,3640,3642</elem>
			<elem id="2193">3748,3746,3747,3952,3642,3640,3641,3866</elem>
			<elem id="2194">3952,3747,3933,3932,3866,3641,3847,3846</elem>
		</Elements>
		<Elements type="hex8" name="Part11">
			<elem id="2195">5809,5810,5811,5817,5702,5703,5704,5710</elem>
			<elem id="2196">5817,5811,5812,5816,5710,5704,5705,5709</elem>
			<elem id="2197">5816,5812,5813,5815,5709,5705,5706,5708</elem>
			<elem id="2198">5815,5813,5814,5622,5708,5706,5707,5530</elem>
			<elem id="2199">5622,5814,5617,5618,5530,5707,5525,5526</elem>
			<elem id="2200">5810,5809,5818,5823,5703,5702,5711,5716</elem>
			<elem id="2201">5823,5818,5819,5822,5716,5711,5712,5715</elem>
			<elem id="2202">5822,5819,5820,5821,5715,5712,5713,5714</elem>
			<elem id="2203">5821,5820,5623,5624,5714,5713,5531,5532</elem>
			<elem id="2204">5624,5623,5619,4104,5532,5531,5527,4020</elem>
			<elem id="2205">5620,5621,5625,5632,5528,5529,5533,5540</elem>
			<elem id="2206">5632,5625,5626,5631,5540,5533,5534,5539</elem>
			<elem id="2207">5631,5626,5627,5630,5539,5534,5535,5538</elem>
			<elem id="2208">5630,5627,5628,5629,5538,5535,5536,5537</elem>
			<elem id="2209">5629,5628,5618,5617,5537,5536,5526,5525</elem>
			<elem id="2210">5621,5620,5633,5640,5529,5528,5541,5548</elem>
			<elem id="2211">5640,5633,5634,5639,5548,5541,5542,5547</elem>
			<elem id="2212">5639,5634,5635,5638,5547,5542,5543,5546</elem>
			<elem id="2213">5638,5635,5636,5637,5546,5543,5544,5545</elem>
			<elem id="2214">5637,5636,4104,5619,5545,5544,4020,5527</elem>
		</Elements>
		<Elements type="hex8" name="Part12">
			<elem id="2215">6046,6290,6291,6058,5925,6171,6172,5937</elem>
			<elem id="2216">6058,6291,6052,6057,5937,6172,5931,5936</elem>
			<elem id="2217">6057,6052,6053,6056,5936,5931,5932,5935</elem>
			<elem id="2218">6056,6053,6054,6055,5935,5932,5933,5934</elem>
			<elem id="2219">6055,6054,6047,6048,5934,5933,5926,5927</elem>
			<elem id="2220">6290,6046,6059,6292,6171,5925,5938,6173</elem>
			<elem id="2221">6292,6059,6060,6065,6173,5938,5939,5944</elem>
			<elem id="2222">6065,6060,6061,6064,5944,5939,5940,5943</elem>
			<elem id="2223">6064,6061,6062,6063,5943,5940,5941,5942</elem>
			<elem id="2224">6063,6062,6049,4544,5942,5941,5928,4427</elem>
			<elem id="2225">6050,6051,6066,6073,5929,5930,5945,5952</elem>
			<elem id="2226">6073,6066,6067,6072,5952,5945,5946,5951</elem>
			<elem id="2227">6072,6067,6068,6071,5951,5946,5947,5950</elem>
			<elem id="2228">6071,6068,6069,6070,5950,5947,5948,5949</elem>
			<elem id="2229">6070,6069,6048,6047,5949,5948,5927,5926</elem>
			<elem id="2230">6051,6050,6074,6081,5930,5929,5953,5960</elem>
			<elem id="2231">6081,6074,6075,6080,5960,5953,5954,5959</elem>
			<elem id="2232">6080,6075,6076,6079,5959,5954,5955,5958</elem>
			<elem id="2233">6079,6076,6077,6078,5958,5955,5956,5957</elem>
			<elem id="2234">6078,6077,4544,6049,5957,5956,4427,5928</elem>
		</Elements>
		<Elements type="hex8" name="Part13">
			<elem id="2235">6522,6523,6528,6535,6403,6404,6409,6416</elem>
			<elem id="2236">6535,6528,6529,6534,6416,6409,6410,6415</elem>
			<elem id="2237">6534,6529,6530,6533,6415,6410,6411,6414</elem>
			<elem id="2238">6533,6530,6531,6532,6414,6411,6412,6413</elem>
			<elem id="2239">6532,6531,6524,6525,6413,6412,6405,6406</elem>
			<elem id="2240">6523,6522,6536,6543,6404,6403,6417,6424</elem>
			<elem id="2241">6543,6536,6537,6542,6424,6417,6418,6423</elem>
			<elem id="2242">6542,6537,6538,6541,6423,6418,6419,6422</elem>
			<elem id="2243">6541,6538,6539,6540,6422,6419,6420,6421</elem>
			<elem id="2244">6540,6539,6526,5024,6421,6420,6407,4906</elem>
			<elem id="2245">6293,6527,6544,6294,6174,6408,6425,6175</elem>
			<elem id="2246">6294,6544,6545,6550,6175,6425,6426,6431</elem>
			<elem id="2247">6550,6545,6546,6549,6431,6426,6427,6430</elem>
			<elem id="2248">6549,6546,6547,6548,6430,6427,6428,6429</elem>
			<elem id="2249">6548,6547,6525,6524,6429,6428,6406,6405</elem>
			<elem id="2250">6527,6293,6295,6557,6408,6174,6176,6438</elem>
			<elem id="2251">6557,6295,6551,6556,6438,6176,6432,6437</elem>
			<elem id="2252">6556,6551,6552,6555,6437,6432,6433,6436</elem>
			<elem id="2253">6555,6552,6553,6554,6436,6433,6434,6435</elem>
			<elem id="2254">6554,6553,5024,6526,6435,6434,4906,6407</elem>
		</Elements>
		<Elements type="hex8" name="Part14">
			<elem id="2255">6940,6941,6945,6952,6854,6855,6859,6866</elem>
			<elem id="2256">6952,6945,6946,6951,6866,6859,6860,6865</elem>
			<elem id="2257">6951,6946,6947,6950,6865,6860,6861,6864</elem>
			<elem id="2258">6950,6947,6948,6949,6864,6861,6862,6863</elem>
			<elem id="2259">6949,6948,6942,6943,6863,6862,6856,6857</elem>
			<elem id="2260">6941,6940,6953,6960,6855,6854,6867,6874</elem>
			<elem id="2261">6960,6953,6954,6959,6874,6867,6868,6873</elem>
			<elem id="2262">6959,6954,6955,6958,6873,6868,6869,6872</elem>
			<elem id="2263">6958,6955,6956,6957,6872,6869,6870,6871</elem>
			<elem id="2264">6957,6956,6944,5441,6871,6870,6858,5363</elem>
			<elem id="2265">6745,6746,6747,6752,6636,6637,6638,6643</elem>
			<elem id="2266">6752,6747,6748,6751,6643,6638,6639,6642</elem>
			<elem id="2267">6751,6748,6749,6750,6642,6639,6640,6641</elem>
			<elem id="2268">6750,6749,6961,6962,6641,6640,6875,6876</elem>
			<elem id="2269">6962,6961,6943,6942,6876,6875,6857,6856</elem>
			<elem id="2270">6746,6745,6753,6759,6637,6636,6644,6650</elem>
			<elem id="2271">6759,6753,6754,6758,6650,6644,6645,6649</elem>
			<elem id="2272">6758,6754,6755,6757,6649,6645,6646,6648</elem>
			<elem id="2273">6757,6755,6756,6963,6648,6646,6647,6877</elem>
			<elem id="2274">6963,6756,5441,6944,6877,6647,5363,6858</elem>
		</Elements>
		<Elements type="hex8" name="Part15">
			<elem id="2275">8591,8592,8593,8599,8519,8520,8521,8527</elem>
			<elem id="2276">8599,8593,8594,8598,8527,8521,8522,8526</elem>
			<elem id="2277">8598,8594,8595,8597,8526,8522,8523,8525</elem>
			<elem id="2278">8597,8595,8596,8462,8525,8523,8524,8400</elem>
			<elem id="2279">8462,8596,8458,8459,8400,8524,8396,8397</elem>
			<elem id="2280">8592,8591,7288,7293,8520,8519,7188,7193</elem>
			<elem id="2281">7293,7288,7289,7292,7193,7188,7189,7192</elem>
			<elem id="2282">7292,7289,7290,7291,7192,7189,7190,7191</elem>
			<elem id="2283">7291,7290,7113,7114,7191,7190,7030,7031</elem>
			<elem id="2284">7114,7113,7111,7112,7031,7030,7028,7029</elem>
			<elem id="2285">8460,8461,8463,8470,8398,8399,8401,8408</elem>
			<elem id="2286">8470,8463,8464,8469,8408,8401,8402,8407</elem>
			<elem id="2287">8469,8464,8465,8468,8407,8402,8403,8406</elem>
			<elem id="2288">8468,8465,8466,8467,8406,8403,8404,8405</elem>
			<elem id="2289">8467,8466,8459,8458,8405,8404,8397,8396</elem>
			<elem id="2290">8461,8460,8471,8472,8399,8398,8409,8410</elem>
			<elem id="2291">8472,8471,7115,7120,8410,8409,7032,7037</elem>
			<elem id="2292">7120,7115,7116,7119,7037,7032,7033,7036</elem>
			<elem id="2293">7119,7116,7117,7118,7036,7033,7034,7035</elem>
			<elem id="2294">7118,7117,7112,7111,7035,7034,7029,7028</elem>
		</Elements>
		<Elements type="hex8" name="Part16">
			<elem id="2295">8753,8926,8927,8764,8670,8840,8841,8681</elem>
			<elem id="2296">8764,8927,8758,8763,8681,8841,8675,8680</elem>
			<elem id="2297">8763,8758,8759,8762,8680,8675,8676,8679</elem>
			<elem id="2298">8762,8759,8760,8761,8679,8676,8677,8678</elem>
			<elem id="2299">8761,8760,8754,8755,8678,8677,8671,8672</elem>
			<elem id="2300">8926,8753,7507,7725,8840,8670,7395,7620</elem>
			<elem id="2301">7725,7507,7508,7513,7620,7395,7396,7401</elem>
			<elem id="2302">7513,7508,7509,7512,7401,7396,7397,7400</elem>
			<elem id="2303">7512,7509,7510,7511,7400,7397,7398,7399</elem>
			<elem id="2304">7511,7510,7505,7506,7399,7398,7393,7394</elem>
			<elem id="2305">8756,8757,8765,8772,8673,8674,8682,8689</elem>
			<elem id="2306">8772,8765,8766,8771,8689,8682,8683,8688</elem>
			<elem id="2307">8771,8766,8767,8770,8688,8683,8684,8687</elem>
			<elem id="2308">8770,8767,8768,8769,8687,8684,8685,8686</elem>
			<elem id="2309">8769,8768,8755,8754,8686,8685,8672,8671</elem>
			<elem id="2310">8757,8756,8773,8774,8674,8673,8690,8691</elem>
			<elem id="2311">8774,8773,7514,7519,8691,8690,7402,7407</elem>
			<elem id="2312">7519,7514,7515,7518,7407,7402,7403,7406</elem>
			<elem id="2313">7518,7515,7516,7517,7406,7403,7404,7405</elem>
			<elem id="2314">7517,7516,7506,7505,7405,7404,7394,7393</elem>
		</Elements>
		<Elements type="hex8" name="Part17">
			<elem id="2315">9088,9089,9093,9100,9007,9008,9012,9019</elem>
			<elem id="2316">9100,9093,9094,9099,9019,9012,9013,9018</elem>
			<elem id="2317">9099,9094,9095,9098,9018,9013,9014,9017</elem>
			<elem id="2318">9098,9095,9096,9097,9017,9014,9015,9016</elem>
			<elem id="2319">9097,9096,9090,9091,9016,9015,9009,9010</elem>
			<elem id="2320">9089,9088,7944,7951,9008,9007,7830,7837</elem>
			<elem id="2321">7951,7944,7945,7950,7837,7830,7831,7836</elem>
			<elem id="2322">7950,7945,7946,7949,7836,7831,7832,7835</elem>
			<elem id="2323">7949,7946,7947,7948,7835,7832,7833,7834</elem>
			<elem id="2324">7948,7947,7942,7943,7834,7833,7828,7829</elem>
			<elem id="2325">8928,9092,9101,8929,8842,9011,9020,8843</elem>
			<elem id="2326">8929,9101,9102,9107,8843,9020,9021,9026</elem>
			<elem id="2327">9107,9102,9103,9106,9026,9021,9022,9025</elem>
			<elem id="2328">9106,9103,9104,9105,9025,9022,9023,9024</elem>
			<elem id="2329">9105,9104,9091,9090,9024,9023,9010,9009</elem>
			<elem id="2330">9092,8928,8930,9108,9011,8842,8844,9027</elem>
			<elem id="2331">9108,8930,7952,7957,9027,8844,7838,7843</elem>
			<elem id="2332">7957,7952,7953,7956,7843,7838,7839,7842</elem>
			<elem id="2333">7956,7953,7954,7955,7842,7839,7840,7841</elem>
			<elem id="2334">7955,7954,7943,7942,7841,7840,7829,7828</elem>
		</Elements>
		<Elements type="hex8" name="Part18">
			<elem id="2335">9357,9358,9361,9368,9303,9304,9307,9314</elem>
			<elem id="2336">9368,9361,9362,9367,9314,9307,9308,9313</elem>
			<elem id="2337">9367,9362,9363,9366,9313,9308,9309,9312</elem>
			<elem id="2338">9366,9363,9364,9365,9312,9309,9310,9311</elem>
			<elem id="2339">9365,9364,9359,9360,9311,9310,9305,9306</elem>
			<elem id="2340">9358,9357,8324,8331,9304,9303,8247,8254</elem>
			<elem id="2341">8331,8324,8325,8330,8254,8247,8248,8253</elem>
			<elem id="2342">8330,8325,8326,8329,8253,8248,8249,8252</elem>
			<elem id="2343">8329,8326,8327,8328,8252,8249,8250,8251</elem>
			<elem id="2344">8328,8327,8322,8323,8251,8250,8245,8246</elem>
			<elem id="2345">9237,9238,9239,9244,9164,9165,9166,9171</elem>
			<elem id="2346">9244,9239,9240,9243,9171,9166,9167,9170</elem>
			<elem id="2347">9243,9240,9241,9242,9170,9167,9168,9169</elem>
			<elem id="2348">9242,9241,9369,9370,9169,9168,9315,9316</elem>
			<elem id="2349">9370,9369,9360,9359,9316,9315,9306,9305</elem>
			<elem id="2350">9238,9237,9245,9246,9165,9164,9172,9173</elem>
			<elem id="2351">9246,9245,8147,8151,9173,9172,8049,8053</elem>
			<elem id="2352">8151,8147,8148,8150,8053,8049,8050,8052</elem>
			<elem id="2353">8150,8148,8149,8332,8052,8050,8051,8255</elem>
			<elem id="2354">8332,8149,8323,8322,8255,8051,8246,8245</elem>
		</Elements>
		<Elements type="hex8" name="Part19">
			<elem id="2355">1634,1635,1636,1639,1519,1520,1521,1524</elem>
			<elem id="2356">1639,1636,1637,1638,1524,1521,1522,1523</elem>
			<elem id="2357">1638,1637,3074,2827,1523,1522,2955,2717</elem>
			<elem id="2358">2827,3074,2825,2826,2717,2955,2715,2716</elem>
			<elem id="2359">2826,2825,2823,2824,2716,2715,2713,2714</elem>
			<elem id="2360">1635,1634,1640,1643,1520,1519,1525,1528</elem>
			<elem id="2361">1643,1640,1641,1642,1528,1525,1526,1527</elem>
			<elem id="2362">1642,1641,1418,1421,1527,1526,1321,1324</elem>
			<elem id="2363">1421,1418,1419,1420,1324,1321,1322,1323</elem>
			<elem id="2364">1420,1419,1414,1415,1323,1322,1317,1318</elem>
			<elem id="2365">1416,1417,1422,1424,1319,1320,1325,1327</elem>
			<elem id="2366">1424,1422,1423,2832,1327,1325,1326,2722</elem>
			<elem id="2367">2832,1423,2828,2831,2722,1326,2718,2721</elem>
			<elem id="2368">2831,2828,2829,2830,2721,2718,2719,2720</elem>
			<elem id="2369">2830,2829,2824,2823,2720,2719,2714,2713</elem>
			<elem id="2370">1417,1416,1425,1432,1320,1319,1328,1335</elem>
			<elem id="2371">1432,1425,1426,1431,1335,1328,1329,1334</elem>
			<elem id="2372">1431,1426,1427,1430,1334,1329,1330,1333</elem>
			<elem id="2373">1430,1427,1428,1429,1333,1330,1331,1332</elem>
			<elem id="2374">1429,1428,1415,1414,1332,1331,1318,1317</elem>
		</Elements>
		<Elements type="hex8" name="Part20">
			<elem id="2375">1836,1837,1842,1845,1733,1734,1739,1742</elem>
			<elem id="2376">1845,1842,1843,1844,1742,1739,1740,1741</elem>
			<elem id="2377">1844,1843,3288,3291,1741,1740,3170,3173</elem>
			<elem id="2378">3291,3288,3289,3290,3173,3170,3171,3172</elem>
			<elem id="2379">3290,3289,3286,3287,3172,3171,3168,3169</elem>
			<elem id="2380">1837,1836,1846,1853,1734,1733,1743,1750</elem>
			<elem id="2381">1853,1846,1847,1852,1750,1743,1744,1749</elem>
			<elem id="2382">1852,1847,1848,1851,1749,1744,1745,1748</elem>
			<elem id="2383">1851,1848,1849,1850,1748,1745,1746,1747</elem>
			<elem id="2384">1850,1849,1838,1839,1747,1746,1735,1736</elem>
			<elem id="2385">1840,1841,1854,1856,1737,1738,1751,1753</elem>
			<elem id="2386">1856,1854,1855,3296,1753,1751,1752,3178</elem>
			<elem id="2387">3296,1855,3292,3295,3178,1752,3174,3177</elem>
			<elem id="2388">3295,3292,3293,3294,3177,3174,3175,3176</elem>
			<elem id="2389">3294,3293,3287,3286,3176,3175,3169,3168</elem>
			<elem id="2390">1841,1840,1857,1864,1738,1737,1754,1761</elem>
			<elem id="2391">1864,1857,1858,1863,1761,1754,1755,1760</elem>
			<elem id="2392">1863,1858,1859,1862,1760,1755,1756,1759</elem>
			<elem id="2393">1862,1859,1860,1861,1759,1756,1757,1758</elem>
			<elem id="2394">1861,1860,1839,1838,1758,1757,1736,1735</elem>
		</Elements>
		<Elements type="hex8" name="Part21">
			<elem id="2395">2265,2266,2269,2272,2165,2166,2169,2172</elem>
			<elem id="2396">2272,2269,2270,2271,2172,2169,2170,2171</elem>
			<elem id="2397">2271,2270,3753,3756,2171,2170,3647,3650</elem>
			<elem id="2398">3756,3753,3754,3755,3650,3647,3648,3649</elem>
			<elem id="2399">3755,3754,3751,3752,3649,3648,3645,3646</elem>
			<elem id="2400">2266,2265,2273,2280,2166,2165,2173,2180</elem>
			<elem id="2401">2280,2273,2274,2279,2180,2173,2174,2179</elem>
			<elem id="2402">2279,2274,2275,2278,2179,2174,2175,2178</elem>
			<elem id="2403">2278,2275,2276,2277,2178,2175,2176,2177</elem>
			<elem id="2404">2277,2276,2267,2268,2177,2176,2167,2168</elem>
			<elem id="2405">2068,2069,2070,2072,1954,1955,1956,1958</elem>
			<elem id="2406">2072,2070,2071,3554,1958,1956,1957,3432</elem>
			<elem id="2407">3554,2071,3757,3760,3432,1957,3651,3654</elem>
			<elem id="2408">3760,3757,3758,3759,3654,3651,3652,3653</elem>
			<elem id="2409">3759,3758,3752,3751,3653,3652,3646,3645</elem>
			<elem id="2410">2069,2068,2073,2077,1955,1954,1959,1963</elem>
			<elem id="2411">2077,2073,2074,2076,1963,1959,1960,1962</elem>
			<elem id="2412">2076,2074,2075,2283,1962,1960,1961,2183</elem>
			<elem id="2413">2283,2075,2281,2282,2183,1961,2181,2182</elem>
			<elem id="2414">2282,2281,2268,2267,2182,2181,2168,2167</elem>
		</Elements>
		<Elements type="hex8" name="Part22">
			<elem id="2415">4545,4546,4547,4551,4428,4429,4430,4434</elem>
			<elem id="2416">4551,4547,4548,4550,4434,4430,4431,4433</elem>
			<elem id="2417">4550,4548,4549,4319,4433,4431,4432,4203</elem>
			<elem id="2418">4319,4549,4317,4318,4203,4432,4201,4202</elem>
			<elem id="2419">4318,4317,4311,4312,4202,4201,4195,4196</elem>
			<elem id="2420">4546,4545,4552,4555,4429,4428,4435,4438</elem>
			<elem id="2421">4555,4552,4553,4554,4438,4435,4436,4437</elem>
			<elem id="2422">4554,4553,4320,4323,4437,4436,4204,4207</elem>
			<elem id="2423">4323,4320,4321,4322,4207,4204,4205,4206</elem>
			<elem id="2424">4322,4321,4313,4314,4206,4205,4197,4198</elem>
			<elem id="2425">4315,4316,4324,4331,4199,4200,4208,4215</elem>
			<elem id="2426">4331,4324,4325,4330,4215,4208,4209,4214</elem>
			<elem id="2427">4330,4325,4326,4329,4214,4209,4210,4213</elem>
			<elem id="2428">4329,4326,4327,4328,4213,4210,4211,4212</elem>
			<elem id="2429">4328,4327,4312,4311,4212,4211,4196,4195</elem>
			<elem id="2430">4316,4315,4332,4339,4200,4199,4216,4223</elem>
			<elem id="2431">4339,4332,4333,4338,4223,4216,4217,4222</elem>
			<elem id="2432">4338,4333,4334,4337,4222,4217,4218,4221</elem>
			<elem id="2433">4337,4334,4335,4336,4221,4218,4219,4220</elem>
			<elem id="2434">4336,4335,4314,4313,4220,4219,4198,4197</elem>
		</Elements>
		<Elements type="hex8" name="Part23">
			<elem id="2435">4792,4793,4800,4807,4670,4671,4678,4685</elem>
			<elem id="2436">4807,4800,4801,4806,4685,4678,4679,4684</elem>
			<elem id="2437">4806,4801,4802,4805,4684,4679,4680,4683</elem>
			<elem id="2438">4805,4802,4803,4804,4683,4680,4681,4682</elem>
			<elem id="2439">4804,4803,4794,4795,4682,4681,4672,4673</elem>
			<elem id="2440">4793,4792,4808,4815,4671,4670,4686,4693</elem>
			<elem id="2441">4815,4808,4809,4814,4693,4686,4687,4692</elem>
			<elem id="2442">4814,4809,4810,4813,4692,4687,4688,4691</elem>
			<elem id="2443">4813,4810,4811,4812,4691,4688,4689,4690</elem>
			<elem id="2444">4812,4811,4796,4797,4690,4689,4674,4675</elem>
			<elem id="2445">4798,4799,4816,4823,4676,4677,4694,4701</elem>
			<elem id="2446">4823,4816,4817,4822,4701,4694,4695,4700</elem>
			<elem id="2447">4822,4817,4818,4821,4700,4695,4696,4699</elem>
			<elem id="2448">4821,4818,4819,4820,4699,4696,4697,4698</elem>
			<elem id="2449">4820,4819,4795,4794,4698,4697,4673,4672</elem>
			<elem id="2450">4799,4798,4824,4831,4677,4676,4702,4709</elem>
			<elem id="2451">4831,4824,4825,4830,4709,4702,4703,4708</elem>
			<elem id="2452">4830,4825,4826,4829,4708,4703,4704,4707</elem>
			<elem id="2453">4829,4826,4827,4828,4707,4704,4705,4706</elem>
			<elem id="2454">4828,4827,4797,4796,4706,4705,4675,4674</elem>
		</Elements>
		<Elements type="hex8" name="Part24">
			<elem id="2455">5258,5259,5264,5271,5141,5142,5147,5154</elem>
			<elem id="2456">5271,5264,5265,5270,5154,5147,5148,5153</elem>
			<elem id="2457">5270,5265,5266,5269,5153,5148,5149,5152</elem>
			<elem id="2458">5269,5266,5267,5268,5152,5149,5150,5151</elem>
			<elem id="2459">5268,5267,5260,5261,5151,5150,5143,5144</elem>
			<elem id="2460">5259,5258,5272,5279,5142,5141,5155,5162</elem>
			<elem id="2461">5279,5272,5273,5278,5162,5155,5156,5161</elem>
			<elem id="2462">5278,5273,5274,5277,5161,5156,5157,5160</elem>
			<elem id="2463">5277,5274,5275,5276,5160,5157,5158,5159</elem>
			<elem id="2464">5276,5275,5262,5263,5159,5158,5145,5146</elem>
			<elem id="2465">5025,5026,5027,5030,4907,4908,4909,4912</elem>
			<elem id="2466">5030,5027,5028,5029,4912,4909,4910,4911</elem>
			<elem id="2467">5029,5028,5280,5283,4911,4910,5163,5166</elem>
			<elem id="2468">5283,5280,5281,5282,5166,5163,5164,5165</elem>
			<elem id="2469">5282,5281,5261,5260,5165,5164,5144,5143</elem>
			<elem id="2470">5026,5025,5031,5035,4908,4907,4913,4917</elem>
			<elem id="2471">5035,5031,5032,5034,4917,4913,4914,4916</elem>
			<elem id="2472">5034,5032,5033,5286,4916,4914,4915,5169</elem>
			<elem id="2473">5286,5033,5284,5285,5169,4915,5167,5168</elem>
			<elem id="2474">5285,5284,5263,5262,5168,5167,5146,5145</elem>
		</Elements>
		<Elements type="hex8" name="Part25">
			<elem id="2475">7520,7521,7522,7526,7408,7409,7410,7414</elem>
			<elem id="2476">7526,7522,7523,7525,7414,7410,7411,7413</elem>
			<elem id="2477">7525,7523,7524,7300,7413,7411,7412,7200</elem>
			<elem id="2478">7300,7524,7298,7299,7200,7412,7198,7199</elem>
			<elem id="2479">7299,7298,7294,7295,7199,7198,7194,7195</elem>
			<elem id="2480">7521,7520,7527,7529,7409,7408,7415,7417</elem>
			<elem id="2481">7529,7527,7528,6082,7417,7415,7416,5961</elem>
			<elem id="2482">6082,7528,5826,5829,5961,7416,5719,5722</elem>
			<elem id="2483">5829,5826,5827,5828,5722,5719,5720,5721</elem>
			<elem id="2484">5828,5827,5824,5825,5721,5720,5717,5718</elem>
			<elem id="2485">7296,7297,7301,7308,7196,7197,7201,7208</elem>
			<elem id="2486">7308,7301,7302,7307,7208,7201,7202,7207</elem>
			<elem id="2487">7307,7302,7303,7306,7207,7202,7203,7206</elem>
			<elem id="2488">7306,7303,7304,7305,7206,7203,7204,7205</elem>
			<elem id="2489">7305,7304,7295,7294,7205,7204,7195,7194</elem>
			<elem id="2490">7297,7296,7309,7312,7197,7196,7209,7212</elem>
			<elem id="2491">7312,7309,7310,7311,7212,7209,7210,7211</elem>
			<elem id="2492">7311,7310,5830,5833,7211,7210,5723,5726</elem>
			<elem id="2493">5833,5830,5831,5832,5726,5723,5724,5725</elem>
			<elem id="2494">5832,5831,5825,5824,5725,5724,5718,5717</elem>
		</Elements>
		<Elements type="hex8" name="Part26">
			<elem id="2495">7726,7727,7732,7739,7621,7622,7627,7634</elem>
			<elem id="2496">7739,7732,7733,7738,7634,7627,7628,7633</elem>
			<elem id="2497">7738,7733,7734,7737,7633,7628,7629,7632</elem>
			<elem id="2498">7737,7734,7735,7736,7632,7629,7630,7631</elem>
			<elem id="2499">7736,7735,7728,7729,7631,7630,7623,7624</elem>
			<elem id="2500">7727,7726,7740,7742,7622,7621,7635,7637</elem>
			<elem id="2501">7742,7740,7741,6302,7637,7635,7636,6183</elem>
			<elem id="2502">6302,7741,6298,6301,6183,7636,6179,6182</elem>
			<elem id="2503">6301,6298,6299,6300,6182,6179,6180,6181</elem>
			<elem id="2504">6300,6299,6296,6297,6181,6180,6177,6178</elem>
			<elem id="2505">7730,7731,7743,7750,7625,7626,7638,7645</elem>
			<elem id="2506">7750,7743,7744,7749,7645,7638,7639,7644</elem>
			<elem id="2507">7749,7744,7745,7748,7644,7639,7640,7643</elem>
			<elem id="2508">7748,7745,7746,7747,7643,7640,7641,7642</elem>
			<elem id="2509">7747,7746,7729,7728,7642,7641,7624,7623</elem>
			<elem id="2510">7731,7730,7751,7754,7626,7625,7646,7649</elem>
			<elem id="2511">7754,7751,7752,7753,7649,7646,7647,7648</elem>
			<elem id="2512">7753,7752,6303,6306,7648,7647,6184,6187</elem>
			<elem id="2513">6306,6303,6304,6305,6187,6184,6185,6186</elem>
			<elem id="2514">6305,6304,6297,6296,6186,6185,6178,6177</elem>
		</Elements>
		<Elements type="hex8" name="Part27">
			<elem id="2515">8152,8153,8156,8163,8054,8055,8058,8065</elem>
			<elem id="2516">8163,8156,8157,8162,8065,8058,8059,8064</elem>
			<elem id="2517">8162,8157,8158,8161,8064,8059,8060,8063</elem>
			<elem id="2518">8161,8158,8159,8160,8063,8060,8061,8062</elem>
			<elem id="2519">8160,8159,8154,8155,8062,8061,8056,8057</elem>
			<elem id="2520">8153,8152,8164,8166,8055,8054,8066,8068</elem>
			<elem id="2521">8166,8164,8165,6766,8068,8066,8067,6657</elem>
			<elem id="2522">6766,8165,6762,6765,6657,8067,6653,6656</elem>
			<elem id="2523">6765,6762,6763,6764,6656,6653,6654,6655</elem>
			<elem id="2524">6764,6763,6760,6761,6655,6654,6651,6652</elem>
			<elem id="2525">7958,7959,7960,7963,7844,7845,7846,7849</elem>
			<elem id="2526">7963,7960,7961,7962,7849,7846,7847,7848</elem>
			<elem id="2527">7962,7961,8167,8170,7848,7847,8069,8072</elem>
			<elem id="2528">8170,8167,8168,8169,8072,8069,8070,8071</elem>
			<elem id="2529">8169,8168,8155,8154,8071,8070,8057,8056</elem>
			<elem id="2530">7959,7958,7964,7967,7845,7844,7850,7853</elem>
			<elem id="2531">7967,7964,7965,7966,7853,7850,7851,7852</elem>
			<elem id="2532">7966,7965,6558,6769,7852,7851,6439,6660</elem>
			<elem id="2533">6769,6558,6767,6768,6660,6439,6658,6659</elem>
			<elem id="2534">6768,6767,6761,6760,6659,6658,6652,6651</elem>
		</Elements>
		<Elements type="hex8" name="Part28">
			<elem id="2535">1644,1645,1649,1656,1529,1530,1534,1541</elem>
			<elem id="2536">1656,1649,1650,1655,1541,1534,1535,1540</elem>
			<elem id="2537">1655,1650,1651,1654,1540,1535,1536,1539</elem>
			<elem id="2538">1654,1651,1652,1653,1539,1536,1537,1538</elem>
			<elem id="2539">1653,1652,1798,1646,1538,1537,1695,1531</elem>
			<elem id="2540">1645,1644,1657,1664,1530,1529,1542,1549</elem>
			<elem id="2541">1664,1657,1658,1663,1549,1542,1543,1548</elem>
			<elem id="2542">1663,1658,1659,1662,1548,1543,1544,1547</elem>
			<elem id="2543">1662,1659,1660,1661,1547,1544,1545,1546</elem>
			<elem id="2544">1661,1660,1647,1648,1546,1545,1532,1533</elem>
			<elem id="2545">3075,3076,3077,3080,2956,2957,2958,2961</elem>
			<elem id="2546">3080,3077,3078,3079,2961,2958,2959,2960</elem>
			<elem id="2547">3079,3078,1665,1668,2960,2959,1550,1553</elem>
			<elem id="2548">1668,1665,1666,1667,1553,1550,1551,1552</elem>
			<elem id="2549">1667,1666,1646,1798,1552,1551,1531,1695</elem>
			<elem id="2550">3076,3075,3081,3085,2957,2956,2962,2966</elem>
			<elem id="2551">3085,3081,3082,3084,2966,2962,2963,2965</elem>
			<elem id="2552">3084,3082,3083,1671,2965,2963,2964,1556</elem>
			<elem id="2553">1671,3083,1669,1670,1556,2964,1554,1555</elem>
			<elem id="2554">1670,1669,1648,1647,1555,1554,1533,1532</elem>
		</Elements>
		<Elements type="hex8" name="Part29">
			<elem id="2555">2078,2079,2083,2090,1964,1965,1969,1976</elem>
			<elem id="2556">2090,2083,2084,2089,1976,1969,1970,1975</elem>
			<elem id="2557">2089,2084,2085,2088,1975,1970,1971,1974</elem>
			<elem id="2558">2088,2085,2086,2087,1974,1971,1972,1973</elem>
			<elem id="2559">2087,2086,2080,2081,1973,1972,1966,1967</elem>
			<elem id="2560">2079,2078,2091,2098,1965,1964,1977,1984</elem>
			<elem id="2561">2098,2091,2092,2097,1984,1977,1978,1983</elem>
			<elem id="2562">2097,2092,2093,2096,1983,1978,1979,1982</elem>
			<elem id="2563">2096,2093,2094,2095,1982,1979,1980,1981</elem>
			<elem id="2564">2095,2094,2082,1865,1981,1980,1968,1762</elem>
			<elem id="2565">3555,3556,3557,3560,3433,3434,3435,3438</elem>
			<elem id="2566">3560,3557,3558,3559,3438,3435,3436,3437</elem>
			<elem id="2567">3559,3558,2099,2102,3437,3436,1985,1988</elem>
			<elem id="2568">2102,2099,2100,2101,1988,1985,1986,1987</elem>
			<elem id="2569">2101,2100,2081,2080,1987,1986,1967,1966</elem>
			<elem id="2570">3556,3555,3561,3565,3434,3433,3439,3443</elem>
			<elem id="2571">3565,3561,3562,3564,3443,3439,3440,3442</elem>
			<elem id="2572">3564,3562,3563,2105,3442,3440,3441,1991</elem>
			<elem id="2573">2105,3563,2103,2104,1991,3441,1989,1990</elem>
			<elem id="2574">2104,2103,1865,2082,1990,1989,1762,1968</elem>
		</Elements>
		<Elements type="hex8" name="Part30">
			<elem id="2575">2460,2461,2463,2470,2377,2378,2380,2387</elem>
			<elem id="2576">2470,2463,2464,2469,2387,2380,2381,2386</elem>
			<elem id="2577">2469,2464,2465,2468,2386,2381,2382,2385</elem>
			<elem id="2578">2468,2465,2466,2467,2385,2382,2383,2384</elem>
			<elem id="2579">2467,2466,2401,2462,2384,2383,2318,2379</elem>
			<elem id="2580">2461,2460,2286,2293,2378,2377,2186,2193</elem>
			<elem id="2581">2293,2286,2287,2292,2193,2186,2187,2192</elem>
			<elem id="2582">2292,2287,2288,2291,2192,2187,2188,2191</elem>
			<elem id="2583">2291,2288,2289,2290,2191,2188,2189,2190</elem>
			<elem id="2584">2290,2289,2284,2285,2190,2189,2184,2185</elem>
			<elem id="2585">3953,3954,3955,3958,3867,3868,3869,3872</elem>
			<elem id="2586">3958,3955,3956,3957,3872,3869,3870,3871</elem>
			<elem id="2587">3957,3956,2471,2474,3871,3870,2388,2391</elem>
			<elem id="2588">2474,2471,2472,2473,2391,2388,2389,2390</elem>
			<elem id="2589">2473,2472,2462,2401,2390,2389,2379,2318</elem>
			<elem id="2590">3954,3953,3959,3960,3868,3867,3873,3874</elem>
			<elem id="2591">3960,3959,3761,3763,3874,3873,3655,3657</elem>
			<elem id="2592">3763,3761,3762,2296,3657,3655,3656,2196</elem>
			<elem id="2593">2296,3762,2294,2295,2196,3656,2194,2195</elem>
			<elem id="2594">2295,2294,2285,2284,2195,2194,2185,2184</elem>
		</Elements>
		<Elements type="hex8" name="Part31">
			<elem id="2595">4105,4106,4111,4112,4021,4022,4027,4028</elem>
			<elem id="2596">4112,4111,4341,4346,4028,4027,4225,4230</elem>
			<elem id="2597">4346,4341,4342,4345,4230,4225,4226,4229</elem>
			<elem id="2598">4345,4342,4343,4344,4229,4226,4227,4228</elem>
			<elem id="2599">4344,4343,4260,4340,4228,4227,4144,4224</elem>
			<elem id="2600">4106,4105,4113,4120,4022,4021,4029,4036</elem>
			<elem id="2601">4120,4113,4114,4119,4036,4029,4030,4035</elem>
			<elem id="2602">4119,4114,4115,4118,4035,4030,4031,4034</elem>
			<elem id="2603">4118,4115,4116,4117,4034,4031,4032,4033</elem>
			<elem id="2604">4117,4116,4107,4108,4033,4032,4023,4024</elem>
			<elem id="2605">4109,4110,4347,4354,4025,4026,4231,4238</elem>
			<elem id="2606">4354,4347,4348,4353,4238,4231,4232,4237</elem>
			<elem id="2607">4353,4348,4349,4352,4237,4232,4233,4236</elem>
			<elem id="2608">4352,4349,4350,4351,4236,4233,4234,4235</elem>
			<elem id="2609">4351,4350,4340,4260,4235,4234,4224,4144</elem>
			<elem id="2610">4110,4109,4121,4128,4026,4025,4037,4044</elem>
			<elem id="2611">4128,4121,4122,4127,4044,4037,4038,4043</elem>
			<elem id="2612">4127,4122,4123,4126,4043,4038,4039,4042</elem>
			<elem id="2613">4126,4123,4124,4125,4042,4039,4040,4041</elem>
			<elem id="2614">4125,4124,4108,4107,4041,4040,4024,4023</elem>
		</Elements>
		<Elements type="hex8" name="Part32">
			<elem id="2615">4556,4557,4563,4570,4439,4440,4446,4453</elem>
			<elem id="2616">4570,4563,4564,4569,4453,4446,4447,4452</elem>
			<elem id="2617">4569,4564,4565,4568,4452,4447,4448,4451</elem>
			<elem id="2618">4568,4565,4566,4567,4451,4448,4449,4450</elem>
			<elem id="2619">4567,4566,4735,4558,4450,4449,4613,4441</elem>
			<elem id="2620">4557,4556,4571,4578,4440,4439,4454,4461</elem>
			<elem id="2621">4578,4571,4572,4577,4461,4454,4455,4460</elem>
			<elem id="2622">4577,4572,4573,4576,4460,4455,4456,4459</elem>
			<elem id="2623">4576,4573,4574,4575,4459,4456,4457,4458</elem>
			<elem id="2624">4575,4574,4559,4560,4458,4457,4442,4443</elem>
			<elem id="2625">4561,4562,4579,4586,4444,4445,4462,4469</elem>
			<elem id="2626">4586,4579,4580,4585,4469,4462,4463,4468</elem>
			<elem id="2627">4585,4580,4581,4584,4468,4463,4464,4467</elem>
			<elem id="2628">4584,4581,4582,4583,4467,4464,4465,4466</elem>
			<elem id="2629">4583,4582,4558,4735,4466,4465,4441,4613</elem>
			<elem id="2630">4562,4561,4587,4594,4445,4444,4470,4477</elem>
			<elem id="2631">4594,4587,4588,4593,4477,4470,4471,4476</elem>
			<elem id="2632">4593,4588,4589,4592,4476,4471,4472,4475</elem>
			<elem id="2633">4592,4589,4590,4591,4475,4472,4473,4474</elem>
			<elem id="2634">4591,4590,4560,4559,4474,4473,4443,4442</elem>
		</Elements>
		<Elements type="hex8" name="Part33">
			<elem id="2635">5036,5037,5043,5050,4918,4919,4925,4932</elem>
			<elem id="2636">5050,5043,5044,5049,4932,4925,4926,4931</elem>
			<elem id="2637">5049,5044,5045,5048,4931,4926,4927,4930</elem>
			<elem id="2638">5048,5045,5046,5047,4930,4927,4928,4929</elem>
			<elem id="2639">5047,5046,5038,5039,4929,4928,4920,4921</elem>
			<elem id="2640">5037,5036,5051,5058,4919,4918,4933,4940</elem>
			<elem id="2641">5058,5051,5052,5057,4940,4933,4934,4939</elem>
			<elem id="2642">5057,5052,5053,5056,4939,4934,4935,4938</elem>
			<elem id="2643">5056,5053,5054,5055,4938,4935,4936,4937</elem>
			<elem id="2644">5055,5054,5040,4832,4937,4936,4922,4710</elem>
			<elem id="2645">5041,5042,5059,5066,4923,4924,4941,4948</elem>
			<elem id="2646">5066,5059,5060,5065,4948,4941,4942,4947</elem>
			<elem id="2647">5065,5060,5061,5064,4947,4942,4943,4946</elem>
			<elem id="2648">5064,5061,5062,5063,4946,4943,4944,4945</elem>
			<elem id="2649">5063,5062,5039,5038,4945,4944,4921,4920</elem>
			<elem id="2650">5042,5041,5067,5074,4924,4923,4949,4956</elem>
			<elem id="2651">5074,5067,5068,5073,4956,4949,4950,4955</elem>
			<elem id="2652">5073,5068,5069,5072,4955,4950,4951,4954</elem>
			<elem id="2653">5072,5069,5070,5071,4954,4951,4952,4953</elem>
			<elem id="2654">5071,5070,4832,5040,4953,4952,4710,4922</elem>
		</Elements>
		<Elements type="hex8" name="Part34">
			<elem id="2655">5442,5443,5447,5454,5364,5365,5369,5376</elem>
			<elem id="2656">5454,5447,5448,5453,5376,5369,5370,5375</elem>
			<elem id="2657">5453,5448,5449,5452,5375,5370,5371,5374</elem>
			<elem id="2658">5452,5449,5450,5451,5374,5371,5372,5373</elem>
			<elem id="2659">5451,5450,5392,5444,5373,5372,5314,5366</elem>
			<elem id="2660">5443,5442,5289,5296,5365,5364,5172,5179</elem>
			<elem id="2661">5296,5289,5290,5295,5179,5172,5173,5178</elem>
			<elem id="2662">5295,5290,5291,5294,5178,5173,5174,5177</elem>
			<elem id="2663">5294,5291,5292,5293,5177,5174,5175,5176</elem>
			<elem id="2664">5293,5292,5287,5288,5176,5175,5170,5171</elem>
			<elem id="2665">5445,5446,5455,5462,5367,5368,5377,5384</elem>
			<elem id="2666">5462,5455,5456,5461,5384,5377,5378,5383</elem>
			<elem id="2667">5461,5456,5457,5460,5383,5378,5379,5382</elem>
			<elem id="2668">5460,5457,5458,5459,5382,5379,5380,5381</elem>
			<elem id="2669">5459,5458,5444,5392,5381,5380,5366,5314</elem>
			<elem id="2670">5446,5445,5463,5464,5368,5367,5385,5386</elem>
			<elem id="2671">5464,5463,5297,5302,5386,5385,5180,5185</elem>
			<elem id="2672">5302,5297,5298,5301,5185,5180,5181,5184</elem>
			<elem id="2673">5301,5298,5299,5300,5184,5181,5182,5183</elem>
			<elem id="2674">5300,5299,5288,5287,5183,5182,5171,5170</elem>
		</Elements>
		<Elements type="hex8" name="Part35">
			<elem id="2675">5641,5642,5643,5644,5549,5550,5551,5552</elem>
			<elem id="2676">5644,5643,5834,5836,5552,5551,5727,5729</elem>
			<elem id="2677">5836,5834,5835,7316,5729,5727,5728,7216</elem>
			<elem id="2678">7316,5835,7314,7315,7216,5728,7214,7215</elem>
			<elem id="2679">7315,7314,7240,7313,7215,7214,7140,7213</elem>
			<elem id="2680">5642,5641,5645,5648,5550,5549,5553,5556</elem>
			<elem id="2681">5648,5645,5646,5647,5556,5553,5554,5555</elem>
			<elem id="2682">5647,5646,7125,7128,5555,5554,7042,7045</elem>
			<elem id="2683">7128,7125,7126,7127,7045,7042,7043,7044</elem>
			<elem id="2684">7127,7126,7121,7122,7044,7043,7038,7039</elem>
			<elem id="2685">7123,7124,7317,7324,7040,7041,7217,7224</elem>
			<elem id="2686">7324,7317,7318,7323,7224,7217,7218,7223</elem>
			<elem id="2687">7323,7318,7319,7322,7223,7218,7219,7222</elem>
			<elem id="2688">7322,7319,7320,7321,7222,7219,7220,7221</elem>
			<elem id="2689">7321,7320,7313,7240,7221,7220,7213,7140</elem>
			<elem id="2690">7124,7123,7129,7136,7041,7040,7046,7053</elem>
			<elem id="2691">7136,7129,7130,7135,7053,7046,7047,7052</elem>
			<elem id="2692">7135,7130,7131,7134,7052,7047,7048,7051</elem>
			<elem id="2693">7134,7131,7132,7133,7051,7048,7049,7050</elem>
			<elem id="2694">7133,7132,7122,7121,7050,7049,7039,7038</elem>
		</Elements>
		<Elements type="hex8" name="Part36">
			<elem id="2695">6083,6084,6085,6089,5962,5963,5964,5968</elem>
			<elem id="2696">6089,6085,6086,6088,5968,5964,5965,5967</elem>
			<elem id="2697">6088,6086,6087,7537,5967,5965,5966,7425</elem>
			<elem id="2698">7537,6087,7535,7536,7425,5966,7423,7424</elem>
			<elem id="2699">7536,7535,7686,7530,7424,7423,7581,7418</elem>
			<elem id="2700">6084,6083,6090,6093,5963,5962,5969,5972</elem>
			<elem id="2701">6093,6090,6091,6092,5972,5969,5970,5971</elem>
			<elem id="2702">6092,6091,7538,7541,5971,5970,7426,7429</elem>
			<elem id="2703">7541,7538,7539,7540,7429,7426,7427,7428</elem>
			<elem id="2704">7540,7539,7531,7532,7428,7427,7419,7420</elem>
			<elem id="2705">7533,7534,7542,7549,7421,7422,7430,7437</elem>
			<elem id="2706">7549,7542,7543,7548,7437,7430,7431,7436</elem>
			<elem id="2707">7548,7543,7544,7547,7436,7431,7432,7435</elem>
			<elem id="2708">7547,7544,7545,7546,7435,7432,7433,7434</elem>
			<elem id="2709">7546,7545,7530,7686,7434,7433,7418,7581</elem>
			<elem id="2710">7534,7533,7550,7557,7422,7421,7438,7445</elem>
			<elem id="2711">7557,7550,7551,7556,7445,7438,7439,7444</elem>
			<elem id="2712">7556,7551,7552,7555,7444,7439,7440,7443</elem>
			<elem id="2713">7555,7552,7553,7554,7443,7440,7441,7442</elem>
			<elem id="2714">7554,7553,7532,7531,7442,7441,7420,7419</elem>
		</Elements>
		<Elements type="hex8" name="Part37">
			<elem id="2715">6559,6560,6561,6565,6440,6441,6442,6446</elem>
			<elem id="2716">6565,6561,6562,6564,6446,6442,6443,6445</elem>
			<elem id="2717">6564,6562,6563,7975,6445,6443,6444,7861</elem>
			<elem id="2718">7975,6563,7973,7974,7861,6444,7859,7860</elem>
			<elem id="2719">7974,7973,7968,7969,7860,7859,7854,7855</elem>
			<elem id="2720">6560,6559,6566,6569,6441,6440,6447,6450</elem>
			<elem id="2721">6569,6566,6567,6568,6450,6447,6448,6449</elem>
			<elem id="2722">6568,6567,7976,7979,6449,6448,7862,7865</elem>
			<elem id="2723">7979,7976,7977,7978,7865,7862,7863,7864</elem>
			<elem id="2724">7978,7977,7970,7755,7864,7863,7856,7650</elem>
			<elem id="2725">7971,7972,7980,7987,7857,7858,7866,7873</elem>
			<elem id="2726">7987,7980,7981,7986,7873,7866,7867,7872</elem>
			<elem id="2727">7986,7981,7982,7985,7872,7867,7868,7871</elem>
			<elem id="2728">7985,7982,7983,7984,7871,7868,7869,7870</elem>
			<elem id="2729">7984,7983,7969,7968,7870,7869,7855,7854</elem>
			<elem id="2730">7972,7971,7988,7995,7858,7857,7874,7881</elem>
			<elem id="2731">7995,7988,7989,7994,7881,7874,7875,7880</elem>
			<elem id="2732">7994,7989,7990,7993,7880,7875,7876,7879</elem>
			<elem id="2733">7993,7990,7991,7992,7879,7876,7877,7878</elem>
			<elem id="2734">7992,7991,7755,7970,7878,7877,7650,7856</elem>
		</Elements>
		<Elements type="hex8" name="Part38">
			<elem id="2735">6964,6965,6966,6970,6878,6879,6880,6884</elem>
			<elem id="2736">6970,6966,6967,6969,6884,6880,6881,6883</elem>
			<elem id="2737">6969,6967,6968,8338,6883,6881,6882,8261</elem>
			<elem id="2738">8338,6968,8336,8337,8261,6882,8259,8260</elem>
			<elem id="2739">8337,8336,8274,8333,8260,8259,8197,8256</elem>
			<elem id="2740">6965,6964,6770,6773,6879,6878,6661,6664</elem>
			<elem id="2741">6773,6770,6771,6772,6664,6661,6662,6663</elem>
			<elem id="2742">6772,6771,8173,8176,6663,6662,8075,8078</elem>
			<elem id="2743">8176,8173,8174,8175,8078,8075,8076,8077</elem>
			<elem id="2744">8175,8174,8171,8172,8077,8076,8073,8074</elem>
			<elem id="2745">8334,8335,8339,8346,8257,8258,8262,8269</elem>
			<elem id="2746">8346,8339,8340,8345,8269,8262,8263,8268</elem>
			<elem id="2747">8345,8340,8341,8344,8268,8263,8264,8267</elem>
			<elem id="2748">8344,8341,8342,8343,8267,8264,8265,8266</elem>
			<elem id="2749">8343,8342,8333,8274,8266,8265,8256,8197</elem>
			<elem id="2750">8335,8334,8347,8348,8258,8257,8270,8271</elem>
			<elem id="2751">8348,8347,8177,8182,8271,8270,8079,8084</elem>
			<elem id="2752">8182,8177,8178,8181,8084,8079,8080,8083</elem>
			<elem id="2753">8181,8178,8179,8180,8083,8080,8081,8082</elem>
			<elem id="2754">8180,8179,8172,8171,8082,8081,8074,8073</elem>
		</Elements>
		<Elements type="hex8" name="Part39">
			<elem id="2755">240,241,244,247,166,167,170,173</elem>
			<elem id="2756">247,244,245,246,173,170,171,172</elem>
			<elem id="2757">246,245,433,436,172,171,342,345</elem>
			<elem id="2758">436,433,434,435,345,342,343,344</elem>
			<elem id="2759">435,434,431,432,344,343,340,341</elem>
			<elem id="2760">241,240,248,255,167,166,174,181</elem>
			<elem id="2761">255,248,249,254,181,174,175,180</elem>
			<elem id="2762">254,249,250,253,180,175,176,179</elem>
			<elem id="2763">253,250,251,252,179,176,177,178</elem>
			<elem id="2764">252,251,242,243,178,177,168,169</elem>
			<elem id="2765">1433,1434,1435,1437,1336,1337,1338,1340</elem>
			<elem id="2766">1437,1435,1436,1674,1340,1338,1339,1559</elem>
			<elem id="2767">1674,1436,1672,1673,1559,1339,1557,1558</elem>
			<elem id="2768">1673,1672,437,438,1558,1557,346,347</elem>
			<elem id="2769">438,437,432,431,347,346,341,340</elem>
			<elem id="2770">1434,1433,1438,1444,1337,1336,1341,1347</elem>
			<elem id="2771">1444,1438,1439,1443,1347,1341,1342,1346</elem>
			<elem id="2772">1443,1439,1440,1442,1346,1342,1343,1345</elem>
			<elem id="2773">1442,1440,1441,256,1345,1343,1344,182</elem>
			<elem id="2774">256,1441,243,242,182,1344,169,168</elem>
		</Elements>
		<Elements type="hex8" name="Part40">
			<elem id="2775">621,622,626,633,518,519,523,530</elem>
			<elem id="2776">633,626,627,632,530,523,524,529</elem>
			<elem id="2777">632,627,628,631,529,524,525,528</elem>
			<elem id="2778">631,628,629,630,528,525,526,527</elem>
			<elem id="2779">630,629,554,623,527,526,451,520</elem>
			<elem id="2780">622,621,634,641,519,518,531,538</elem>
			<elem id="2781">641,634,635,640,538,531,532,537</elem>
			<elem id="2782">640,635,636,639,537,532,533,536</elem>
			<elem id="2783">639,636,637,638,536,533,534,535</elem>
			<elem id="2784">638,637,624,625,535,534,521,522</elem>
			<elem id="2785">1866,1867,1868,1873,1763,1764,1765,1770</elem>
			<elem id="2786">1873,1868,1869,1872,1770,1765,1766,1769</elem>
			<elem id="2787">1872,1869,1870,1871,1769,1766,1767,1768</elem>
			<elem id="2788">1871,1870,642,643,1768,1767,539,540</elem>
			<elem id="2789">643,642,623,554,540,539,520,451</elem>
			<elem id="2790">1867,1866,1874,1880,1764,1763,1771,1777</elem>
			<elem id="2791">1880,1874,1875,1879,1777,1771,1772,1776</elem>
			<elem id="2792">1879,1875,1876,1878,1776,1772,1773,1775</elem>
			<elem id="2793">1878,1876,1877,644,1775,1773,1774,541</elem>
			<elem id="2794">644,1877,625,624,541,1774,522,521</elem>
		</Elements>
		<Elements type="hex8" name="Part41">
			<elem id="2795">959,960,962,969,879,880,882,889</elem>
			<elem id="2796">969,962,963,968,889,882,883,888</elem>
			<elem id="2797">968,963,964,967,888,883,884,887</elem>
			<elem id="2798">967,964,965,966,887,884,885,886</elem>
			<elem id="2799">966,965,911,961,886,885,831,881</elem>
			<elem id="2800">960,959,970,972,880,879,890,892</elem>
			<elem id="2801">972,970,971,813,892,890,891,728</elem>
			<elem id="2802">813,971,809,812,728,891,724,727</elem>
			<elem id="2803">812,809,810,811,727,724,725,726</elem>
			<elem id="2804">811,810,807,808,726,725,722,723</elem>
			<elem id="2805">2297,2298,2299,2304,2197,2198,2199,2204</elem>
			<elem id="2806">2304,2299,2300,2303,2204,2199,2200,2203</elem>
			<elem id="2807">2303,2300,2301,2302,2203,2200,2201,2202</elem>
			<elem id="2808">2302,2301,973,974,2202,2201,893,894</elem>
			<elem id="2809">974,973,961,911,894,893,881,831</elem>
			<elem id="2810">2298,2297,2305,2308,2198,2197,2205,2208</elem>
			<elem id="2811">2308,2305,2306,2307,2208,2205,2206,2207</elem>
			<elem id="2812">2307,2306,2106,2108,2207,2206,1992,1994</elem>
			<elem id="2813">2108,2106,2107,814,1994,1992,1993,729</elem>
			<elem id="2814">814,2107,808,807,729,1993,723,722</elem>
		</Elements>
		<Elements type="hex8" name="Part42">
			<elem id="2815">2833,2834,2838,2841,2723,2724,2728,2731</elem>
			<elem id="2816">2841,2838,2839,2840,2731,2728,2729,2730</elem>
			<elem id="2817">2840,2839,3088,3091,2730,2729,2969,2972</elem>
			<elem id="2818">3091,3088,3089,3090,2972,2969,2970,2971</elem>
			<elem id="2819">3090,3089,3086,3087,2971,2970,2967,2968</elem>
			<elem id="2820">2834,2833,2842,2849,2724,2723,2732,2739</elem>
			<elem id="2821">2849,2842,2843,2848,2739,2732,2733,2738</elem>
			<elem id="2822">2848,2843,2844,2847,2738,2733,2734,2737</elem>
			<elem id="2823">2847,2844,2845,2846,2737,2734,2735,2736</elem>
			<elem id="2824">2846,2845,2835,2836,2736,2735,2725,2726</elem>
			<elem id="2825">4355,2837,2850,4356,4239,2727,2740,4240</elem>
			<elem id="2826">4356,2850,2851,3096,4240,2740,2741,2977</elem>
			<elem id="2827">3096,2851,3092,3095,2977,2741,2973,2976</elem>
			<elem id="2828">3095,3092,3093,3094,2976,2973,2974,2975</elem>
			<elem id="2829">3094,3093,3087,3086,2975,2974,2968,2967</elem>
			<elem id="2830">2837,4355,4357,2858,2727,4239,4241,2748</elem>
			<elem id="2831">2858,4357,2852,2857,2748,4241,2742,2747</elem>
			<elem id="2832">2857,2852,2853,2856,2747,2742,2743,2746</elem>
			<elem id="2833">2856,2853,2854,2855,2746,2743,2744,2745</elem>
			<elem id="2834">2855,2854,2836,2835,2745,2744,2726,2725</elem>
		</Elements>
		<Elements type="hex8" name="Part43">
			<elem id="2835">3297,3298,3303,3310,3179,3180,3185,3192</elem>
			<elem id="2836">3310,3303,3304,3309,3192,3185,3186,3191</elem>
			<elem id="2837">3309,3304,3305,3308,3191,3186,3187,3190</elem>
			<elem id="2838">3308,3305,3306,3307,3190,3187,3188,3189</elem>
			<elem id="2839">3307,3306,3228,3299,3189,3188,3110,3181</elem>
			<elem id="2840">3298,3297,3311,3318,3180,3179,3193,3200</elem>
			<elem id="2841">3318,3311,3312,3317,3200,3193,3194,3199</elem>
			<elem id="2842">3317,3312,3313,3316,3199,3194,3195,3198</elem>
			<elem id="2843">3316,3313,3314,3315,3198,3195,3196,3197</elem>
			<elem id="2844">3315,3314,3300,3301,3197,3196,3182,3183</elem>
			<elem id="2845">4833,3302,3319,4834,4711,3184,3201,4712</elem>
			<elem id="2846">4834,3319,3320,3325,4712,3201,3202,3207</elem>
			<elem id="2847">3325,3320,3321,3324,3207,3202,3203,3206</elem>
			<elem id="2848">3324,3321,3322,3323,3206,3203,3204,3205</elem>
			<elem id="2849">3323,3322,3299,3228,3205,3204,3181,3110</elem>
			<elem id="2850">3302,4833,4835,3332,3184,4711,4713,3214</elem>
			<elem id="2851">3332,4835,3326,3331,3214,4713,3208,3213</elem>
			<elem id="2852">3331,3326,3327,3330,3213,3208,3209,3212</elem>
			<elem id="2853">3330,3327,3328,3329,3212,3209,3210,3211</elem>
			<elem id="2854">3329,3328,3301,3300,3211,3210,3183,3182</elem>
		</Elements>
		<Elements type="hex8" name="Part44">
			<elem id="2855">3764,3765,3768,3775,3658,3659,3662,3669</elem>
			<elem id="2856">3775,3768,3769,3774,3669,3662,3663,3668</elem>
			<elem id="2857">3774,3769,3770,3773,3668,3663,3664,3667</elem>
			<elem id="2858">3773,3770,3771,3772,3667,3664,3665,3666</elem>
			<elem id="2859">3772,3771,3698,3766,3666,3665,3592,3660</elem>
			<elem id="2860">3765,3764,3776,3778,3659,3658,3670,3672</elem>
			<elem id="2861">3778,3776,3777,3572,3672,3670,3671,3450</elem>
			<elem id="2862">3572,3777,3568,3571,3450,3671,3446,3449</elem>
			<elem id="2863">3571,3568,3569,3570,3449,3446,3447,3448</elem>
			<elem id="2864">3570,3569,3566,3567,3448,3447,3444,3445</elem>
			<elem id="2865">5303,3767,3779,5304,5186,3661,3673,5187</elem>
			<elem id="2866">5304,3779,3780,3785,5187,3673,3674,3679</elem>
			<elem id="2867">3785,3780,3781,3784,3679,3674,3675,3678</elem>
			<elem id="2868">3784,3781,3782,3783,3678,3675,3676,3677</elem>
			<elem id="2869">3783,3782,3766,3698,3677,3676,3660,3592</elem>
			<elem id="2870">3767,5303,5305,3788,3661,5186,5188,3682</elem>
			<elem id="2871">3788,5305,3786,3787,3682,5188,3680,3681</elem>
			<elem id="2872">3787,3786,3573,3576,3681,3680,3451,3454</elem>
			<elem id="2873">3576,3573,3574,3575,3454,3451,3452,3453</elem>
			<elem id="2874">3575,3574,3567,3566,3453,3452,3445,3444</elem>
		</Elements>
		<Elements type="hex8" name="Part45">
			<elem id="2875">5837,4358,4359,5844,5730,4242,4243,5737</elem>
			<elem id="2876">5844,4359,5842,5843,5737,4243,5735,5736</elem>
			<elem id="2877">5843,5842,6096,6099,5736,5735,5975,5978</elem>
			<elem id="2878">6099,6096,6097,6098,5978,5975,5976,5977</elem>
			<elem id="2879">6098,6097,6094,6095,5977,5976,5973,5974</elem>
			<elem id="2880">4358,5837,5845,4360,4242,5730,5738,4244</elem>
			<elem id="2881">4360,5845,5846,5851,4244,5738,5739,5744</elem>
			<elem id="2882">5851,5846,5847,5850,5744,5739,5740,5743</elem>
			<elem id="2883">5850,5847,5848,5849,5743,5740,5741,5742</elem>
			<elem id="2884">5849,5848,5838,5839,5742,5741,5731,5732</elem>
			<elem id="2885">5840,5841,5852,5854,5733,5734,5745,5747</elem>
			<elem id="2886">5854,5852,5853,6104,5747,5745,5746,5983</elem>
			<elem id="2887">6104,5853,6100,6103,5983,5746,5979,5982</elem>
			<elem id="2888">6103,6100,6101,6102,5982,5979,5980,5981</elem>
			<elem id="2889">6102,6101,6095,6094,5981,5980,5974,5973</elem>
			<elem id="2890">5841,5840,5855,5862,5734,5733,5748,5755</elem>
			<elem id="2891">5862,5855,5856,5861,5755,5748,5749,5754</elem>
			<elem id="2892">5861,5856,5857,5860,5754,5749,5750,5753</elem>
			<elem id="2893">5860,5857,5858,5859,5753,5750,5751,5752</elem>
			<elem id="2894">5859,5858,5839,5838,5752,5751,5732,5731</elem>
		</Elements>
		<Elements type="hex8" name="Part46">
			<elem id="2895">6307,4836,4837,6319,6188,4714,4715,6200</elem>
			<elem id="2896">6319,4837,6313,6318,6200,4715,6194,6199</elem>
			<elem id="2897">6318,6313,6314,6317,6199,6194,6195,6198</elem>
			<elem id="2898">6317,6314,6315,6316,6198,6195,6196,6197</elem>
			<elem id="2899">6316,6315,6228,6308,6197,6196,6109,6189</elem>
			<elem id="2900">4836,6307,6320,4838,4714,6188,6201,4716</elem>
			<elem id="2901">4838,6320,6321,6326,4716,6201,6202,6207</elem>
			<elem id="2902">6326,6321,6322,6325,6207,6202,6203,6206</elem>
			<elem id="2903">6325,6322,6323,6324,6206,6203,6204,6205</elem>
			<elem id="2904">6324,6323,6309,6310,6205,6204,6190,6191</elem>
			<elem id="2905">6311,6312,6327,6334,6192,6193,6208,6215</elem>
			<elem id="2906">6334,6327,6328,6333,6215,6208,6209,6214</elem>
			<elem id="2907">6333,6328,6329,6332,6214,6209,6210,6213</elem>
			<elem id="2908">6332,6329,6330,6331,6213,6210,6211,6212</elem>
			<elem id="2909">6331,6330,6308,6228,6212,6211,6189,6109</elem>
			<elem id="2910">6312,6311,6335,6342,6193,6192,6216,6223</elem>
			<elem id="2911">6342,6335,6336,6341,6223,6216,6217,6222</elem>
			<elem id="2912">6341,6336,6337,6340,6222,6217,6218,6221</elem>
			<elem id="2913">6340,6337,6338,6339,6221,6218,6219,6220</elem>
			<elem id="2914">6339,6338,6310,6309,6220,6219,6191,6190</elem>
		</Elements>
		<Elements type="hex8" name="Part47">
			<elem id="2915">6774,5306,5307,6784,6665,5189,5190,6675</elem>
			<elem id="2916">6784,5307,6778,6783,6675,5190,6669,6674</elem>
			<elem id="2917">6783,6778,6779,6782,6674,6669,6670,6673</elem>
			<elem id="2918">6782,6779,6780,6781,6673,6670,6671,6672</elem>
			<elem id="2919">6781,6780,6695,6775,6672,6671,6586,6666</elem>
			<elem id="2920">5306,6774,6785,5308,5189,6665,6676,5191</elem>
			<elem id="2921">5308,6785,6786,6576,5191,6676,6677,6457</elem>
			<elem id="2922">6576,6786,6572,6575,6457,6677,6453,6456</elem>
			<elem id="2923">6575,6572,6573,6574,6456,6453,6454,6455</elem>
			<elem id="2924">6574,6573,6570,6571,6455,6454,6451,6452</elem>
			<elem id="2925">6776,6777,6787,6794,6667,6668,6678,6685</elem>
			<elem id="2926">6794,6787,6788,6793,6685,6678,6679,6684</elem>
			<elem id="2927">6793,6788,6789,6792,6684,6679,6680,6683</elem>
			<elem id="2928">6792,6789,6790,6791,6683,6680,6681,6682</elem>
			<elem id="2929">6791,6790,6775,6695,6682,6681,6666,6586</elem>
			<elem id="2930">6777,6776,6795,6798,6668,6667,6686,6689</elem>
			<elem id="2931">6798,6795,6796,6797,6689,6686,6687,6688</elem>
			<elem id="2932">6797,6796,6577,6580,6688,6687,6458,6461</elem>
			<elem id="2933">6580,6577,6578,6579,6461,6458,6459,6460</elem>
			<elem id="2934">6579,6578,6571,6570,6460,6459,6452,6451</elem>
		</Elements>
		<Elements type="hex8" name="Part48">
			<elem id="2935">7325,7326,7327,7330,7225,7226,7227,7230</elem>
			<elem id="2936">7330,7327,7328,7329,7230,7227,7228,7229</elem>
			<elem id="2937">7329,7328,7558,7560,7229,7228,7446,7448</elem>
			<elem id="2938">7560,7558,7559,8777,7448,7446,7447,8694</elem>
			<elem id="2939">8777,7559,8775,8776,8694,7447,8692,8693</elem>
			<elem id="2940">7326,7325,7331,7336,7226,7225,7231,7236</elem>
			<elem id="2941">7336,7331,7332,7335,7236,7231,7232,7235</elem>
			<elem id="2942">7335,7332,7333,7334,7235,7232,7233,7234</elem>
			<elem id="2943">7334,7333,8604,8605,7234,7233,8532,8533</elem>
			<elem id="2944">8605,8604,8600,8601,8533,8532,8528,8529</elem>
			<elem id="2945">8602,8603,8606,8608,8530,8531,8534,8536</elem>
			<elem id="2946">8608,8606,8607,8782,8536,8534,8535,8699</elem>
			<elem id="2947">8782,8607,8778,8781,8699,8535,8695,8698</elem>
			<elem id="2948">8781,8778,8779,8780,8698,8695,8696,8697</elem>
			<elem id="2949">8780,8779,8776,8775,8697,8696,8693,8692</elem>
			<elem id="2950">8603,8602,8609,8616,8531,8530,8537,8544</elem>
			<elem id="2951">8616,8609,8610,8615,8544,8537,8538,8543</elem>
			<elem id="2952">8615,8610,8611,8614,8543,8538,8539,8542</elem>
			<elem id="2953">8614,8611,8612,8613,8542,8539,8540,8541</elem>
			<elem id="2954">8613,8612,8601,8600,8541,8540,8529,8528</elem>
		</Elements>
		<Elements type="hex8" name="Part49">
			<elem id="2955">7756,7757,7758,7764,7651,7652,7653,7659</elem>
			<elem id="2956">7764,7758,7759,7763,7659,7653,7654,7658</elem>
			<elem id="2957">7763,7759,7760,7762,7658,7654,7655,7657</elem>
			<elem id="2958">7762,7760,7761,8936,7657,7655,7656,8850</elem>
			<elem id="2959">8936,7761,8879,8931,8850,7656,8793,8845</elem>
			<elem id="2960">7757,7756,7765,7770,7652,7651,7660,7665</elem>
			<elem id="2961">7770,7765,7766,7769,7665,7660,7661,7664</elem>
			<elem id="2962">7769,7766,7767,7768,7664,7661,7662,7663</elem>
			<elem id="2963">7768,7767,8937,8938,7663,7662,8851,8852</elem>
			<elem id="2964">8938,8937,8932,8933,8852,8851,8846,8847</elem>
			<elem id="2965">8934,8935,8939,8946,8848,8849,8853,8860</elem>
			<elem id="2966">8946,8939,8940,8945,8860,8853,8854,8859</elem>
			<elem id="2967">8945,8940,8941,8944,8859,8854,8855,8858</elem>
			<elem id="2968">8944,8941,8942,8943,8858,8855,8856,8857</elem>
			<elem id="2969">8943,8942,8931,8879,8857,8856,8845,8793</elem>
			<elem id="2970">8935,8934,8947,8954,8849,8848,8861,8868</elem>
			<elem id="2971">8954,8947,8948,8953,8868,8861,8862,8867</elem>
			<elem id="2972">8953,8948,8949,8952,8867,8862,8863,8866</elem>
			<elem id="2973">8952,8949,8950,8951,8866,8863,8864,8865</elem>
			<elem id="2974">8951,8950,8933,8932,8865,8864,8847,8846</elem>
		</Elements>
		<Elements type="hex8" name="Part50">
			<elem id="2975">8183,8184,8185,8191,8085,8086,8087,8093</elem>
			<elem id="2976">8191,8185,8186,8190,8093,8087,8088,8092</elem>
			<elem id="2977">8190,8186,8187,8189,8092,8088,8089,8091</elem>
			<elem id="2978">8189,8187,8188,9250,8091,8089,8090,9177</elem>
			<elem id="2979">9250,8188,9207,9247,9177,8090,9134,9174</elem>
			<elem id="2980">8184,8183,8192,8194,8086,8085,8094,8096</elem>
			<elem id="2981">8194,8192,8193,7998,8096,8094,8095,7884</elem>
			<elem id="2982">7998,8193,7996,7997,7884,8095,7882,7883</elem>
			<elem id="2983">7997,7996,9111,9112,7883,7882,9030,9031</elem>
			<elem id="2984">9112,9111,9109,9110,9031,9030,9028,9029</elem>
			<elem id="2985">9248,9249,9251,9258,9175,9176,9178,9185</elem>
			<elem id="2986">9258,9251,9252,9257,9185,9178,9179,9184</elem>
			<elem id="2987">9257,9252,9253,9256,9184,9179,9180,9183</elem>
			<elem id="2988">9256,9253,9254,9255,9183,9180,9181,9182</elem>
			<elem id="2989">9255,9254,9247,9207,9182,9181,9174,9134</elem>
			<elem id="2990">9249,9248,9259,9262,9176,9175,9186,9189</elem>
			<elem id="2991">9262,9259,9260,9261,9189,9186,9187,9188</elem>
			<elem id="2992">9261,9260,9113,9116,9188,9187,9032,9035</elem>
			<elem id="2993">9116,9113,9114,9115,9035,9032,9033,9034</elem>
			<elem id="2994">9115,9114,9110,9109,9034,9033,9029,9028</elem>
		</Elements>
		<Elements type="hex8" name="Part51">
			<elem id="2995">9371,9372,9373,9374,9375,9376,9377,9378</elem>
		</Elements>
		<Elements type="hex8" name="Part53">
			<elem id="2996">9379,9380,9381,9382,9383,9384,9385,9386</elem>
		</Elements>
		<NodeSet name="PrescribedDisplacement1">
			9371, 9372, 9373, 9374, 9375, 9376, 9377, 9378
		</NodeSet>
		<NodeSet name="ZeroRotation2">
			9371, 9372, 9373, 9374, 9375, 9376, 9377, 9378
		</NodeSet>
		<NodeSet name="ZeroRotation3">
			1, 2, 3, 4, 5, 6, 7, 8,
			9, 10, 11, 12, 13, 14, 15, 16,
			17, 18, 19, 20, 21, 22, 23, 24,
			25, 26, 27, 28, 29, 30, 31, 32,
			33, 34, 35, 36, 37, 38, 39, 40,
			41, 42, 43, 44, 45, 46, 47, 48,
			49, 50, 51, 52, 53, 54, 55, 56,
			57, 58, 59, 60, 61, 62, 63, 64,
			65, 66, 67, 68, 69, 70, 71, 72,
			73, 74, 75, 76, 77, 78, 79, 80,
			81, 82, 83, 84, 85, 86, 87, 88,
			89, 90, 91, 92, 93, 94, 95, 96,
			97, 98, 99, 100, 101, 102, 103, 104,
			105, 106, 107, 108, 109, 110, 111, 112,
			113, 114, 115, 116, 117, 118, 119, 120,
			121, 122, 123, 124, 125, 126, 127, 128,
			129, 130, 131, 132, 133, 134, 135, 136,
			137, 138, 139, 140, 141, 142, 143, 144,
			145, 146, 147, 148, 149, 150, 151, 152,
			153, 154, 155, 156, 157, 158, 159, 160,
<!-- ... 1152 like lines cut -->
		</NodeSet>
		<Surface name="TiedFacetOnFacet1Primary">
			<quad4 id="1">672,649,734,757</quad4>
			<quad4 id="2">673,672,757,758</quad4>
			<quad4 id="3">650,673,758,735</quad4>
			<quad4 id="4">846,822,902,926</quad4>
			<quad4 id="5">823,846,926,903</quad4>
			<quad4 id="6">477,448,551,580</quad4>
			<quad4 id="7">664,477,580,749</quad4>
			<quad4 id="8">999,981,1043,1061</quad4>
			<quad4 id="9">1000,999,1061,1062</quad4>
			<quad4 id="10">982,1000,1062,1044</quad4>
			<quad4 id="11">281,258,349,372</quad4>
			<quad4 id="12">490,281,372,593</quad4>
			<quad4 id="13">491,490,593,594</quad4>
			<quad4 id="14">458,491,594,561</quad4>
			<quad4 id="15">302,271,362,393</quad4>
			<quad4 id="16">272,302,393,363</quad4>
			<quad4 id="17">141,118,192,215</quad4>
			<quad4 id="18">119,141,215,193</quad4>
			<quad4 id="19">24,8,62,78</quad4>
			<quad4 id="20">9,24,78,63</quad4>
		</Surface>
		<Surface name="TiedFacetOnFacet2Primary">
			<quad4 id="1">9296,9275,9329,9350</quad4>
			<quad4 id="2">9276,9296,9350,9330</quad4>
			<quad4 id="3">9144,9127,9200,9217</quad4>
			<quad4 id="4">9128,9144,9217,9201</quad4>
			<quad4 id="5">8980,8957,9038,9061</quad4>
			<quad4 id="6">8958,8980,9061,9039</quad4>
			<quad4 id="7">8810,8974,9055,8896</quad4>
			<quad4 id="8">8788,8810,8896,8874</quad4>
			<quad4 id="9">8826,8801,8887,8912</quad4>
			<quad4 id="10">8617,8826,8912,8700</quad4>
			<quad4 id="11">8383,8361,8423,8445</quad4>
			<quad4 id="12">8384,8383,8445,8446</quad4>
			<quad4 id="13">8362,8384,8446,8424</quad4>
			<quad4 id="14">8660,8632,8715,8743</quad4>
			<quad4 id="15">8661,8660,8743,8744</quad4>
			<quad4 id="16">8633,8661,8744,8716</quad4>
			<quad4 id="17">8507,8488,8560,8579</quad4>
			<quad4 id="18">8489,8507,8579,8561</quad4>
		</Surface>
		<Surface name="TiedFacetOnFacet1Secondary">
			<quad4 id="1">9372,9373,9377,9376</quad4>
		</Surface>
		<Surface name="TiedFacetOnFacet2Secondary">
			<quad4 id="1">9382,9379,9383,9386</quad4>
		</Surface>
		<SurfacePair name="TiedFacetOnFacet1">
			<primary>TiedFacetOnFacet1Primary</primary>
			<secondary>TiedFacetOnFacet1Secondary</secondary>
		</SurfacePair>
		<SurfacePair name="TiedFacetOnFacet2">
			<primary>TiedFacetOnFacet2Primary</primary>
			<secondary>TiedFacetOnFacet2Secondary</secondary>
		</SurfacePair>
	</Mesh>
	<MeshDomains>
		<SolidDomain name="Part1" mat="main_body" />
		<SolidDomain name="Part2" mat="0" />
		<SolidDomain name="Part3" mat="1" />
		<SolidDomain name="Part4" mat="1" />
		<SolidDomain name="Part5" mat="0" />
		<SolidDomain name="Part6" mat="1" />
		<SolidDomain name="Part7" mat="1" />
		<SolidDomain name="Part8" mat="1" />
		<SolidDomain name="Part9" mat="0" />
		<SolidDomain name="Part10" mat="0" />
		<SolidDomain name="Part11" mat="1" />
		<SolidDomain name="Part12" mat="0" />
		<SolidDomain name="Part13" mat="1" />
		<SolidDomain name="Part14" mat="0" />
		<SolidDomain name="Part15" mat="0" />
		<SolidDomain name="Part16" mat="1" />
		<SolidDomain name="Part17" mat="1" />
		<SolidDomain name="Part18" mat="1" />
		<SolidDomain name="Part19" mat="0" />
		<SolidDomain name="Part20" mat="0" />
		<SolidDomain name="Part21" mat="1" />
<!-- ... 29 like lines cut -->
		<SolidDomain name="Part51" mat="Material3" />
		<SolidDomain name="Part53" mat="fix_mat" />
	</MeshDomains>
	<Boundary>
		<bc name="PrescribedDisplacement1" node_set="PrescribedDisplacement1" type="prescribed displacement">
			<dof>z</dof>
			<value lc="1">-56</value>
			<relative>0</relative>
		</bc>
		<bc name="ZeroRotation2" node_set="ZeroRotation2" type="zero rotation">
			<u_dof>1</u_dof>
			<v_dof>1</v_dof>
			<w_dof>0</w_dof>
		</bc>
		<bc name="ZeroRotation3" node_set="ZeroRotation3" type="zero rotation">
			<u_dof>0</u_dof>
			<v_dof>1</v_dof>
			<w_dof>1</w_dof>
		</bc>
	</Boundary>
	<Rigid>
		<rigid_bc name="RigidConstraint1" type="rigid_fixed">
			<rb>fix_mat</rb>
			<Rx_dof>1</Rx_dof>
			<Ry_dof>1</Ry_dof>
			<Rz_dof>1</Rz_dof>
			<Ru_dof>1</Ru_dof>
			<Rv_dof>1</Rv_dof>
			<Rw_dof>1</Rw_dof>
		</rigid_bc>
	</Rigid>
	<Contact>
		<contact name="TiedFacetOnFacet1" surface_pair="TiedFacetOnFacet1" type="tied-facet-on-facet">
			<laugon>PENALTY</laugon>
			<tolerance>0.01</tolerance>
			<penalty>1</penalty>
			<minaug>0</minaug>
			<maxaug>10</maxaug>
			<search_tolerance>0.0001</search_tolerance>
			<gap_offset>0</gap_offset>
		</contact>
		<contact name="TiedFacetOnFacet2" surface_pair="TiedFacetOnFacet2" type="tied-facet-on-facet">
			<laugon>PENALTY</laugon>
			<tolerance>0.01</tolerance>
			<penalty>1</penalty>
			<minaug>0</minaug>
			<maxaug>10</maxaug>
			<search_tolerance>0.0001</search_tolerance>
			<gap_offset>0</gap_offset>
		</contact>
	</Contact>
	<LoadData>
		<load_controller id="1" name="LC1" type="loadcurve">
			<interpolate>LINEAR</interpolate>
			<extend>CONSTANT</extend>
			<points>
				<pt>0,0</pt>
				<pt>1,1</pt>
			</points>
		</load_controller>
	</LoadData>
	<Output>
		<plotfile type="febio">
			<var type="displacement" />
			<var type="stress" />
			<var type="relative volume" />
			<var type="contact pressure" />
			<var type="contact gap" />
		</plotfile>
	</Output>
</febio_spec>