<?xml version="1.0" encoding="ISO-8859-1"?>
<febio_spec version="4.0">
	<Module type="solid"/>
	<Control>
		<analysis>STATIC</analysis>
		<time_steps>10</time_steps>
		<step_size>0.1</step_size>
		<plot_zero_state>0</plot_zero_state>
		<plot_range>0,-1</plot_range>
		<plot_level>PLOT_MAJOR_ITRS</plot_level>
		<output_level>OUTPUT_MAJOR_ITRS</output_level>
		<plot_stride>1</plot_stride>
		<adaptor_re_solve>1</adaptor_re_solve>
		<time_stepper type="default">
			<max_retries>5</max_retries>
			<opt_iter>10</opt_iter>
			<dtmin>0.01</dtmin>
			<dtmax>0.1</dtmax>
			<aggressiveness>0</aggressiveness>
			<cutback>0.5</cutback>
			<dtforce>0</dtforce>
		</time_stepper>
		<solver type="solid">
			<symmetric_stiffness>symmetric</symmetric_stiffness>
			<equation_scheme>staggered</equation_scheme>
			<equation_order>default</equation_order>
			<optimize_bw>0</optimize_bw>
			<lstol>0.9</lstol>
			<lsmin>0.01</lsmin>
			<lsiter>5</lsiter>
			<max_refs>15</max_refs>
			<check_zero_diagonal>0</check_zero_diagonal>
			<zero_diagonal_tol>0</zero_diagonal_tol>
			<force_partition>0</force_partition>
			<reform_each_time_step>1</reform_each_time_step>
			<reform_augment>0</reform_augment>
			<diverge_reform>1</diverge_reform>
			<min_residual>1e-20</min_residual>
			<max_residual>0</max_residual>
			<dtol>0.001</dtol>
			<etol>0.01</etol>
			<rtol>0</rtol>
			<rhoi>0</rhoi>
			<alpha>1</alpha>
			<beta>0.25</beta>
			<gamma>0.5</gamma>
			<logSolve>0</logSolve>
			<arc_length>0</arc_length>
			<arc_length_scale>0</arc_length_scale>
			<qn_method type="BFGS">
				<max_ups>10</max_ups>
				<max_buffer_size>0</max_buffer_size>
				<cycle_buffer>1</cycle_buffer>
				<cmax>100000</cmax>
			</qn_method>
		</solver>
	</Control>
	<Globals>
		<Constants>
			<T>0</T>
			<P>0</P>
			<R>0</R>
			<Fc>0</Fc>
		</Constants>
	</Globals>
	<Material>
		<material id="1" name="top" type="neo-Hookean">
			<density>1</density>
			<E>1000</E>
			<v>0.3</v>
		</material>
		<material id="2" name="bottom" type="Ogden">
			<density>1.07e-09</density>
			<k>100</k>
			<pressure_model>default</pressure_model>
			<c1>3.31</c1>
			<c2>3.115</c2>
			<c3>3.468</c3>
			<c4>0</c4>
			<c5>0</c5>
			<c6>0</c6>
			<m1>-0.322</m1>
			<m2>0.19</m2>
			<m3>0.145</m3>
			<m4>1</m4>
			<m5>1</m5>
			<m6>1</m6>
		</material>
		<material id="3" name="Rigid" type="rigid body">
			<density>1</density>
			<E>0</E>
			<v>0</v>
			<center_of_mass>0,0,1.5</center_of_mass>
		</material>
	</Material>
	<Mesh>
		<Nodes name="Object1">
			<node id="1">0,0,-1</node>
			<node id="2">0,0,-0.77594195</node>
			<node id="3">0,0,-0.59669551</node>
			<node id="4">0,0,-0.453298358</node>
			<node id="5">0,0,-0.338580637</node>
			<node id="6">0,0,-0.246806459</node>
			<node id="7">0,0,-0.173387118</node>
			<node id="8">0,0,-0.114651644</node>
			<node id="9">0,0,-0.0676632654</node>
			<node id="10">0,0,-0.0300725624</node>
			<node id="11">0,0,0</node>
			<node id="12">0,0.1,-1</node>
			<node id="13">0,0.1,-0.77594195</node>
			<node id="14">0,0.1,-0.59669551</node>
			<node id="15">0,0.1,-0.453298358</node>
			<node id="16">0,0.1,-0.338580637</node>
			<node id="17">0,0.1,-0.246806459</node>
			<node id="18">0,0.1,-0.173387118</node>
			<node id="19">0,0.1,-0.114651644</node>
			<node id="20">0,0.1,-0.0676632654</node>
<!-- ... 1311 like lines cut -->
		</Nodes>
		<Nodes name="Object3">
			<node id="1332">0,0,0.496111797</node>
			<node id="1333">0.353553391,0,0.642558406</node>
			<node id="1334">0,0.353553391,0.642558406</node>
			<node id="1335">0.288675135,0.288675135,0.707436662</node>
			<node id="1336">0.5,0,0.996111797</node>
			<node id="1337">0,0.5,0.996111797</node>
			<node id="1338">0.353553391,0.353553391,0.996111797</node>
			<node id="1339">0,0,-0.00388820291</node>
			<node id="1340">0.707106781,0,0.289005016</node>
			<node id="1341">0,0.707106781,0.289005016</node>
			<node id="1342">0.577350269,0.577350269,0.418761528</node>
			<node id="1343">1,0,0.996111797</node>
			<node id="1344">0,1,0.996111797</node>
			<node id="1345">0.707106781,0.707106781,0.996111797</node>
			<node id="1346">0.76822128,0,0.355927397</node>
			<node id="1347">0.832050294,0,0.441411601</node>
			<node id="1348">0.894427191,0,0.548898202</node>
			<node id="1349">0.948683298,0,0.679884031</node>
			<node id="1350">0.986393924,0,0.83171281</node>
			<node id="1351">0.618718434,0,0.377393364</node>
<!-- ... 615 like lines cut -->
		</Nodes>
		<Elements type="hex8" name="Part1">
			<elem id="1">1,122,133,12,2,123,134,13</elem>
			<elem id="2">2,123,134,13,3,124,135,14</elem>
			<elem id="3">3,124,135,14,4,125,136,15</elem>
			<elem id="4">4,125,136,15,5,126,137,16</elem>
			<elem id="5">5,126,137,16,6,127,138,17</elem>
			<elem id="6">6,127,138,17,7,128,139,18</elem>
			<elem id="7">7,128,139,18,8,129,140,19</elem>
			<elem id="8">8,129,140,19,9,130,141,20</elem>
			<elem id="9">9,130,141,20,10,131,142,21</elem>
			<elem id="10">10,131,142,21,11,132,143,22</elem>
			<elem id="11">12,133,144,23,13,134,145,24</elem>
			<elem id="12">13,134,145,24,14,135,146,25</elem>
			<elem id="13">14,135,146,25,15,136,147,26</elem>
			<elem id="14">15,136,147,26,16,137,148,27</elem>
			<elem id="15">16,137,148,27,17,138,149,28</elem>
			<elem id="16">17,138,149,28,18,139,150,29</elem>
			<elem id="17">18,139,150,29,19,140,151,30</elem>
			<elem id="18">19,140,151,30,20,141,152,31</elem>
			<elem id="19">20,141,152,31,21,142,153,32</elem>
			<elem id="20">21,142,153,32,22,143,154,33</elem>
<!-- ... 980 like lines cut -->
		</Elements>
		<Elements type="hex8" name="Part3">
			<elem id="1001">1333,1353,1549,1392,1354,1459,1742,1516</elem>
			<elem id="1002">1353,1352,1550,1549,1459,1458,1743,1742</elem>
			<elem id="1003">1352,1351,1551,1550,1458,1457,1744,1743</elem>
			<elem id="1004">1351,1340,1362,1551,1457,1346,1472,1744</elem>
			<elem id="1005">1392,1549,1546,1391,1516,1742,1745,1515</elem>
			<elem id="1006">1549,1550,1547,1546,1742,1743,1746,1745</elem>
			<elem id="1007">1550,1551,1548,1547,1743,1744,1747,1746</elem>
			<elem id="1008">1551,1362,1363,1548,1744,1472,1473,1747</elem>
			<elem id="1009">1391,1546,1543,1390,1515,1745,1748,1514</elem>
			<elem id="1010">1546,1547,1544,1543,1745,1746,1749,1748</elem>
			<elem id="1011">1547,1548,1545,1544,1746,1747,1750,1749</elem>
			<elem id="1012">1548,1363,1364,1545,1747,1473,1474,1750</elem>
			<elem id="1013">1390,1543,1540,1389,1514,1748,1751,1513</elem>
			<elem id="1014">1543,1544,1541,1540,1748,1749,1752,1751</elem>
			<elem id="1015">1544,1545,1542,1541,1749,1750,1753,1752</elem>
			<elem id="1016">1545,1364,1365,1542,1750,1474,1475,1753</elem>
			<elem id="1017">1389,1540,1537,1388,1513,1751,1754,1512</elem>
			<elem id="1018">1540,1541,1538,1537,1751,1752,1755,1754</elem>
			<elem id="1019">1541,1542,1539,1538,1752,1753,1756,1755</elem>
			<elem id="1020">1542,1365,1366,1539,1753,1475,1476,1756</elem>
<!-- ... 412 like lines cut -->
		</Elements>
		<Surface name="FixedDisplacement1">
			<quad4 id="1">111,100,101,112</quad4>
			<quad4 id="2">112,101,102,113</quad4>
			<quad4 id="3">113,102,103,114</quad4>
			<quad4 id="4">114,103,104,115</quad4>
			<quad4 id="5">115,104,105,116</quad4>
			<quad4 id="6">116,105,106,117</quad4>
			<quad4 id="7">117,106,107,118</quad4>
			<quad4 id="8">118,107,108,119</quad4>
			<quad4 id="9">119,108,109,120</quad4>
			<quad4 id="10">120,109,110,121</quad4>
			<quad4 id="11">100,89,90,101</quad4>
			<quad4 id="12">101,90,91,102</quad4>
			<quad4 id="13">102,91,92,103</quad4>
			<quad4 id="14">103,92,93,104</quad4>
			<quad4 id="15">104,93,94,105</quad4>
			<quad4 id="16">105,94,95,106</quad4>
			<quad4 id="17">106,95,96,107</quad4>
			<quad4 id="18">107,96,97,108</quad4>
			<quad4 id="19">108,97,98,109</quad4>
			<quad4 id="20">109,98,99,110</quad4>
<!-- ... 128 like lines cut -->
		</Surface>
		<Surface name="FixedDisplacement2">
			<quad4 id="1">1,122,123,2</quad4>
			<quad4 id="2">2,123,124,3</quad4>
			<quad4 id="3">3,124,125,4</quad4>
			<quad4 id="4">4,125,126,5</quad4>
			<quad4 id="5">5,126,127,6</quad4>
			<quad4 id="6">6,127,128,7</quad4>
			<quad4 id="7">7,128,129,8</quad4>
			<quad4 id="8">8,129,130,9</quad4>
			<quad4 id="9">9,130,131,10</quad4>
			<quad4 id="10">10,131,132,11</quad4>
			<quad4 id="11">122,243,244,123</quad4>
			<quad4 id="12">123,244,245,124</quad4>
			<quad4 id="13">124,245,246,125</quad4>
			<quad4 id="14">125,246,247,126</quad4>
			<quad4 id="15">126,247,248,127</quad4>
			<quad4 id="16">127,248,249,128</quad4>
			<quad4 id="17">128,249,250,129</quad4>
			<quad4 id="18">129,250,251,130</quad4>
			<quad4 id="19">130,251,252,131</quad4>
			<quad4 id="20">131,252,253,132</quad4>
<!-- ... 128 like lines cut -->
		</Surface>
		<Surface name="FixedDisplacement3">
			<quad4 id="1">100,111,232,221</quad4>
			<quad4 id="2">89,100,221,210</quad4>
			<quad4 id="3">78,89,210,199</quad4>
			<quad4 id="4">67,78,199,188</quad4>
			<quad4 id="5">56,67,188,177</quad4>
			<quad4 id="6">45,56,177,166</quad4>
			<quad4 id="7">34,45,166,155</quad4>
			<quad4 id="8">23,34,155,144</quad4>
			<quad4 id="9">12,23,144,133</quad4>
			<quad4 id="10">1,12,133,122</quad4>
			<quad4 id="11">221,232,353,342</quad4>
			<quad4 id="12">210,221,342,331</quad4>
			<quad4 id="13">199,210,331,320</quad4>
			<quad4 id="14">188,199,320,309</quad4>
			<quad4 id="15">177,188,309,298</quad4>
			<quad4 id="16">166,177,298,287</quad4>
			<quad4 id="17">155,166,287,276</quad4>
			<quad4 id="18">144,155,276,265</quad4>
			<quad4 id="19">133,144,265,254</quad4>
			<quad4 id="20">122,133,254,243</quad4>
<!-- ... 80 like lines cut -->
		</Surface>
		<Surface name="Rigid1">
			<quad4 id="1">1392,1333,1354,1516</quad4>
			<quad4 id="2">1391,1392,1516,1515</quad4>
			<quad4 id="3">1390,1391,1515,1514</quad4>
			<quad4 id="4">1389,1390,1514,1513</quad4>
			<quad4 id="5">1388,1389,1513,1512</quad4>
			<quad4 id="6">1335,1388,1512,1380</quad4>
			<quad4 id="7">1516,1354,1355,1521</quad4>
			<quad4 id="8">1515,1516,1521,1520</quad4>
			<quad4 id="9">1514,1515,1520,1519</quad4>
			<quad4 id="10">1513,1514,1519,1518</quad4>
			<quad4 id="11">1512,1513,1518,1517</quad4>
			<quad4 id="12">1380,1512,1517,1381</quad4>
			<quad4 id="13">1521,1355,1356,1526</quad4>
			<quad4 id="14">1520,1521,1526,1525</quad4>
			<quad4 id="15">1519,1520,1525,1524</quad4>
			<quad4 id="16">1518,1519,1524,1523</quad4>
			<quad4 id="17">1517,1518,1523,1522</quad4>
			<quad4 id="18">1381,1517,1522,1382</quad4>
			<quad4 id="19">1526,1356,1357,1531</quad4>
			<quad4 id="20">1525,1526,1531,1530</quad4>
<!-- ... 88 like lines cut -->
		</Surface>
		<Surface name="SlidingElasticContact1Secondary">
			<quad4 id="1">1340,1362,1472,1346</quad4>
			<quad4 id="2">1362,1363,1473,1472</quad4>
			<quad4 id="3">1363,1364,1474,1473</quad4>
			<quad4 id="4">1364,1365,1475,1474</quad4>
			<quad4 id="5">1365,1366,1476,1475</quad4>
			<quad4 id="6">1366,1342,1367,1476</quad4>
			<quad4 id="7">1346,1472,1477,1347</quad4>
			<quad4 id="8">1472,1473,1478,1477</quad4>
			<quad4 id="9">1473,1474,1479,1478</quad4>
			<quad4 id="10">1474,1475,1480,1479</quad4>
			<quad4 id="11">1475,1476,1481,1480</quad4>
			<quad4 id="12">1476,1367,1368,1481</quad4>
			<quad4 id="13">1347,1477,1482,1348</quad4>
			<quad4 id="14">1477,1478,1483,1482</quad4>
			<quad4 id="15">1478,1479,1484,1483</quad4>
			<quad4 id="16">1479,1480,1485,1484</quad4>
			<quad4 id="17">1480,1481,1486,1485</quad4>
			<quad4 id="18">1481,1368,1369,1486</quad4>
			<quad4 id="19">1348,1482,1487,1349</quad4>
			<quad4 id="20">1482,1483,1488,1487</quad4>
<!-- ... 88 like lines cut -->
		</Surface>
		<Surface name="SlidingElasticContact1Primary">
			<quad4 id="1">11,132,143,22</quad4>
			<quad4 id="2">22,143,154,33</quad4>
			<quad4 id="3">33,154,165,44</quad4>
			<quad4 id="4">44,165,176,55</quad4>
			<quad4 id="5">55,176,187,66</quad4>
			<quad4 id="6">66,187,198,77</quad4>
			<quad4 id="7">77,198,209,88</quad4>
			<quad4 id="8">88,209,220,99</quad4>
			<quad4 id="9">99,220,231,110</quad4>
			<quad4 id="10">110,231,242,121</quad4>
			<quad4 id="11">132,253,264,143</quad4>
			<quad4 id="12">143,264,275,154</quad4>
			<quad4 id="13">154,275,286,165</quad4>
			<quad4 id="14">165,286,297,176</quad4>
			<quad4 id="15">176,297,308,187</quad4>
			<quad4 id="16">187,308,319,198</quad4>
			<quad4 id="17">198,319,330,209</quad4>
			<quad4 id="18">209,330,341,220</quad4>
			<quad4 id="19">220,341,352,231</quad4>
			<quad4 id="20">231,352,363,242</quad4>
<!-- ... 80 like lines cut -->
		</Surface>
		<SurfacePair name="SlidingElasticContact1">
			<primary>SlidingElasticContact1Primary</primary>
			<secondary>SlidingElasticContact1Secondary</secondary>
		</SurfacePair>
	</Mesh>
	<MeshDomains>
		<SolidDomain name="Part1" mat="bottom"/>
		<SolidDomain name="Part3" mat="top"/>
	</MeshDomains>
	<Boundary>
		<bc name="FixedDisplacement1" node_set="@surface:FixedDisplacement1" type="zero displacement">
			<x_dof>1</x_dof>
			<y_dof>0</y_dof>
			<z_dof>0</z_dof>
		</bc>
		<bc name="FixedDisplacement2" node_set="@surface:FixedDisplacement2" type="zero displacement">
			<x_dof>0</x_dof>
			<y_dof>1</y_dof>
			<z_dof>0</z_dof>
		</bc>
		<bc name="FixedDisplacement3" node_set="@surface:FixedDisplacement3" type="zero displacement">
			<x_dof>0</x_dof>
			<y_dof>0</y_dof>
			<z_dof>1</z_dof>
		</bc>
		<bc name="Rigid1" node_set="@surface:Rigid1" type="rigid">
			<rb>Rigid</rb>
		</bc>
	</Boundary>
	<Rigid>
		<rigid_bc name="RigidFixed" type="rigid_fixed">
			<rb>Rigid</rb>
			<Rx_dof>1</Rx_dof>
			<Ry_dof>1</Ry_dof>
			<Rz_dof>0</Rz_dof>
			<Ru_dof>1</Ru_dof>
			<Rv_dof>1</Rv_dof>
			<Rw_dof>1</Rw_dof>
		</rigid_bc>
		<rigid_load name="RigidForceZ" type="rigid_force">
			<rb>Rigid</rb>
			<dof>Rz</dof>
			<value lc="1">-1</value>
			<load_type>LOAD</load_type>
			<relative>0</relative>
		</rigid_load>
	</Rigid>
	<Contact>
		<contact name="SlidingElasticContact1" surface_pair="SlidingElasticContact1" type="sliding-elastic">
			<laugon>PENALTY</laugon>
			<tolerance>0.2</tolerance>
			<gaptol>0</gaptol>
			<penalty>1</penalty>
			<auto_penalty>1</auto_penalty>
			<update_penalty>0</update_penalty>
			<two_pass>0</two_pass>
			<knmult>0</knmult>
			<search_tol>0.01</search_tol>
			<symmetric_stiffness>0</symmetric_stiffness>
			<search_radius>1</search_radius>
			<seg_up>0</seg_up>
			<tension>0</tension>
			<minaug>0</minaug>
			<maxaug>10</maxaug>
			<node_reloc>0</node_reloc>
			<fric_coeff>0</fric_coeff>
			<smooth_aug>0</smooth_aug>
			<flip_primary>0</flip_primary>
			<flip_secondary>0</flip_secondary>
			<shell_bottom_primary>0</shell_bottom_primary>
			<shell_bottom_secondary>0</shell_bottom_secondary>
			<offset>0</offset>
		</contact>
	</Contact>
	<LoadData>
		<load_controller id="1" name="LC1" type="loadcurve">
			<interpolate>SMOOTH</interpolate>
			<extend>CONSTANT</extend>
			<points>
				<pt>0,0</pt>
				<pt>1,1</pt>
			</points>
		</load_controller>
	</LoadData>
	<Output>
		<plotfile type="febio">
			<var type="displacement"/>
			<var type="stress"/>
			<var type="relative volume"/>
		</plotfile>
	</Output>
</febio_spec>
