<?xml version="1.0" encoding="ISO-8859-1"?>
<febio_spec version="4.0">
	<Module type="solid"/>
	<Control>
		<analysis>STATIC</analysis>
		<time_steps>10</time_steps>
		<step_size>0.1</step_size>
		<plot_zero_state>0</plot_zero_state>
		<plot_range>0,-1</plot_range>
		<plot_level>PLOT_MAJOR_ITRS</plot_level>
		<output_level>OUTPUT_MAJOR_ITRS</output_level>
		<plot_stride>1</plot_stride>
		<adaptor_re_solve>0</adaptor_re_solve>
		<time_stepper type="default">
			<max_retries>10</max_retries>
			<opt_iter>11</opt_iter>
			<dtmin>0</dtmin>
			<dtmax>0.1</dtmax>
			<aggressiveness>0</aggressiveness>
			<cutback>0.5</cutback>
			<dtforce>0</dtforce>
		</time_stepper>
		<solver type="solid">
			<symmetric_stiffness>symmetric</symmetric_stiffness>
			<equation_scheme>staggered</equation_scheme>
			<equation_order>default</equation_order>
			<optimize_bw>0</optimize_bw>
			<lstol>0.9</lstol>
			<lsmin>0.01</lsmin>
			<lsiter>5</lsiter>
			<max_refs>15</max_refs>
			<check_zero_diagonal>0</check_zero_diagonal>
			<zero_diagonal_tol>0</zero_diagonal_tol>
			<force_partition>0</force_partition>
			<reform_each_time_step>1</reform_each_time_step>
			<reform_augment>0</reform_augment>
			<diverge_reform>1</diverge_reform>
			<min_residual>1e-20</min_residual>
			<max_residual>0</max_residual>
			<dtol>0.001</dtol>
			<etol>0.01</etol>
			<rtol>0</rtol>
			<rhoi>-2</rhoi>
			<alpha>1</alpha>
			<beta>0.25</beta>
			<gamma>0.5</gamma>
			<logSolve>0</logSolve>
			<arc_length>0</arc_length>
			<arc_length_scale>0</arc_length_scale>
			<qn_method type="BFGS">
				<max_ups>10</max_ups>
				<max_buffer_size>0</max_buffer_size>
				<cycle_buffer>1</cycle_buffer>
				<cmax>100000</cmax>
			</qn_method>
		</solver>
	</Control>
	<Globals>
		<Constants>
			<T>0</T>
			<P>0</P>
			<R>8.31446</R>
			<Fc>96485.3</Fc>
		</Constants>
	</Globals>
	<Material>
		<material id="1" name="fix_mat" type="rigid body">
			<density>1e-09</density>
			<E>210000</E>
			<v>0.33</v>
		</material>
		<material id="2" name="main_body" type="Ogden unconstrained">
			<density>1.07e-09</density>
			<cp>0.001</cp>
			<c1>3.31</c1>
			<c2>3.115</c2>
			<c3>3.468</c3>
			<c4>0</c4>
			<c5>0</c5>
			<c6>0</c6>
			<m1>-0.322</m1>
			<m2>0.19</m2>
			<m3>0.145</m3>
			<m4>1</m4>
			<m5>1</m5>
			<m6>1</m6>
		</material>
		<material id="3" name="moving_mat" type="neo-Hookean">
			<density>8e-09</density>
			<E>210000</E>
			<v>0.33</v>
		</material>
	</Material>
	<Mesh>
		<Nodes name="Main-1">
			<node id="1">-50.6621323,20.3925762,0</node>
			<node id="2">-52.8131065,24.5325222,0</node>
			<node id="3">-51,28,0</node>
			<node id="4">-48.7998238,27.955883,0</node>
			<node id="5">-47.0511818,23.9027214,0</node>
			<node id="6">-48.5214195,22.7700348,0</node>
			<node id="7">-53.2748528,17.9788914,0</node>
			<node id="8">-56,19,0</node>
			<node id="9">-56,23.5,0</node>
			<node id="10">-52.8054008,31.461729,0</node>
			<node id="11">-50.421524,34.9580765,0</node>
			<node id="12">-49.2919312,33.4612999,0</node>
			<node id="13">-47.3057747,31.8277798,0</node>
			<node id="14">-45.0871353,22.5470409,0</node>
			<node id="15">-45.5136833,21.3657761,0</node>
			<node id="16">-46.5594902,20.3621292,0</node>
			<node id="17">-45.7799606,19.347929,0</node>
			<node id="18">-48.1156807,14.255415,0</node>
			<node id="19">-51.5,14,0</node>
			<node id="20">-56,32.5,0</node>
<!-- ... 30153 like lines cut -->
		</Nodes>
		<Nodes name="fix_mat">
			<node id="30174">56.4,-75,0</node>
			<node id="30175">57.4,-75,0</node>
			<node id="30176">57.4,75,0</node>
			<node id="30177">56.4,75,0</node>
			<node id="30178">56.4,-75,20</node>
			<node id="30179">57.4,-75,20</node>
			<node id="30180">57.4,75,20</node>
			<node id="30181">56.4,75,20</node>
		</Nodes>
		<Nodes name="moving_mat">
			<node id="30182">-57.4,-75,0</node>
			<node id="30183">-56.4,-75,0</node>
			<node id="30184">-56.4,75,0</node>
			<node id="30185">-57.4,75,0</node>
			<node id="30186">-57.4,-75,20</node>
			<node id="30187">-56.4,-75,20</node>
			<node id="30188">-56.4,75,20</node>
			<node id="30189">-57.4,75,20</node>
		</Nodes>
		<Elements type="hex8" name="Part1">
			<elem id="1">2302,1060,1,1059,5045,3803,2744,3802</elem>
			<elem id="2">2302,1061,2,1060,5045,3804,2745,3803</elem>
			<elem id="3">2302,1062,3,1061,5045,3805,2746,3804</elem>
			<elem id="4">2302,2304,1063,1062,5045,5047,3806,3805</elem>
			<elem id="5">2304,2303,1064,1063,5047,5046,3807,3806</elem>
			<elem id="6">2303,1065,4,1064,5046,3808,2747,3807</elem>
			<elem id="7">2303,1066,5,1065,5046,3809,2748,3808</elem>
			<elem id="8">2304,6,1066,2303,5047,2749,3809,5046</elem>
			<elem id="9">2302,1059,6,2304,5045,3802,2749,5047</elem>
			<elem id="10">2305,1060,2,1067,5048,3803,2745,3810</elem>
			<elem id="11">2305,1068,1,1060,5048,3811,2744,3803</elem>
			<elem id="12">2305,2306,1069,1068,5048,5049,3812,3811</elem>
			<elem id="13">2306,1070,7,1069,5049,3813,2750,3812</elem>
			<elem id="14">2306,1071,8,1070,5049,3814,2751,3813</elem>
			<elem id="15">2305,1072,1071,2306,5048,3815,3814,5049</elem>
			<elem id="16">2305,1067,9,1072,5048,3810,2752,3815</elem>
			<elem id="17">2307,1074,10,1073,5050,3817,2753,3816</elem>
			<elem id="18">2307,12,11,1074,5050,2755,2754,3817</elem>
			<elem id="19">2307,2309,1075,12,5050,5052,3818,2755</elem>
			<elem id="20">2309,2308,1076,1075,5052,5051,3819,3818</elem>
<!-- ... 20120 like lines cut -->
		</Elements>
		<Elements type="hex8" name="Part2">
			<elem id="20141">30174,30175,30176,30177,30178,30179,30180,30181</elem>
		</Elements>
		<Elements type="hex8" name="Part9">
			<elem id="20142">30182,30183,30184,30185,30186,30187,30188,30189</elem>
		</Elements>
		<NodeSet name="ZeroDisplacement3">
			30182, 30183, 30184, 30185, 30186, 30187, 30188, 30189
		</NodeSet>
		<NodeSet name="ZeroRotation3">
			1, 2, 3, 4, 5, 6, 7, 8,
			9, 10, 11, 12, 13, 14, 15, 16,
			17, 18, 19, 20, 21, 22, 23, 24,
			25, 26, 27, 28, 29, 30, 31, 32,
			33, 34, 35, 36, 37, 38, 39, 40,
			41, 42, 43, 44, 45, 46, 47, 48,
			49, 50, 51, 52, 53, 54, 55, 56,
			57, 58, 59, 60, 61, 62, 63, 64,
			65, 66, 67, 68, 69, 70, 71, 72,
			73, 74, 75, 76, 77, 78, 79, 80,
			81, 82, 83, 84, 85, 86, 87, 88,
			89, 90, 91, 92, 93, 94, 95, 96,
			97, 98, 99, 100, 101, 102, 103, 104,
			105, 106, 107, 108, 109, 110, 111, 112,
			113, 114, 115, 116, 117, 118, 119, 120,
			121, 122, 123, 124, 125, 126, 127, 128,
			129, 130, 131, 132, 133, 134, 135, 136,
			137, 138, 139, 140, 141, 142, 143, 144,
			145, 146, 147, 148, 149, 150, 151, 152,
			153, 154, 155, 156, 157, 158, 159, 160,
<!-- ... 3754 like lines cut -->
		</NodeSet>
		<Surface name="SlidingElastic1Secondary">
			<quad4 id="1">30183,30184,30188,30187</quad4>
		</Surface>
		<Surface name="fix_surfSecondary">
			<quad4 id="1">30177,30174,30178,30181</quad4>
		</Surface>
		<Surface name="fix_surfPrimary">
			<quad4 id="1">1719,556,3299,4462</quad4>
			<quad4 id="2">557,1719,4462,3300</quad4>
			<quad4 id="3">4462,3299,6042,7205</quad4>
			<quad4 id="4">3300,4462,7205,6043</quad4>
			<quad4 id="5">7205,6042,8785,9948</quad4>
			<quad4 id="6">6043,7205,9948,8786</quad4>
			<quad4 id="7">9948,8785,11528,12691</quad4>
			<quad4 id="8">8786,9948,12691,11529</quad4>
			<quad4 id="9">12691,11528,14271,15434</quad4>
			<quad4 id="10">11529,12691,15434,14272</quad4>
			<quad4 id="11">15434,14271,17014,18177</quad4>
			<quad4 id="12">14272,15434,18177,17015</quad4>
			<quad4 id="13">18177,17014,19757,20920</quad4>
			<quad4 id="14">17015,18177,20920,19758</quad4>
			<quad4 id="15">20920,19757,22500,23663</quad4>
			<quad4 id="16">19758,20920,23663,22501</quad4>
			<quad4 id="17">23663,22500,25243,26406</quad4>
			<quad4 id="18">22501,23663,26406,25244</quad4>
			<quad4 id="19">26406,25243,27986,29149</quad4>
			<quad4 id="20">25244,26406,29149,27987</quad4>
<!-- ... 160 like lines cut -->
		</Surface>
		<Surface name="moving_surfPrimary">
			<quad4 id="1">1071,8,2751,3814</quad4>
			<quad4 id="2">1072,1071,3814,3815</quad4>
			<quad4 id="3">9,1072,3815,2752</quad4>
			<quad4 id="4">3814,2751,5494,6557</quad4>
			<quad4 id="5">3815,3814,6557,6558</quad4>
			<quad4 id="6">2752,3815,6558,5495</quad4>
			<quad4 id="7">6557,5494,8237,9300</quad4>
			<quad4 id="8">6558,6557,9300,9301</quad4>
			<quad4 id="9">5495,6558,9301,8238</quad4>
			<quad4 id="10">9300,8237,10980,12043</quad4>
			<quad4 id="11">9301,9300,12043,12044</quad4>
			<quad4 id="12">8238,9301,12044,10981</quad4>
			<quad4 id="13">12043,10980,13723,14786</quad4>
			<quad4 id="14">12044,12043,14786,14787</quad4>
			<quad4 id="15">10981,12044,14787,13724</quad4>
			<quad4 id="16">14786,13723,16466,17529</quad4>
			<quad4 id="17">14787,14786,17529,17530</quad4>
			<quad4 id="18">13724,14787,17530,16467</quad4>
			<quad4 id="19">17529,16466,19209,20272</quad4>
			<quad4 id="20">17530,17529,20272,20273</quad4>
<!-- ... 180 like lines cut -->
		</Surface>
		<Surface name="Pressure1">
			<quad4 id="1">30185,30182,30186,30189</quad4>
		</Surface>
		<SurfacePair name="moving_surf">
			<primary>moving_surfPrimary</primary>
			<secondary>SlidingElastic1Secondary</secondary>
		</SurfacePair>
		<SurfacePair name="fix_surf">
			<primary>fix_surfPrimary</primary>
			<secondary>fix_surfSecondary</secondary>
		</SurfacePair>
	</Mesh>
	<MeshDomains>
		<SolidDomain name="Part1" mat="main_body"/>
		<SolidDomain name="Part2" mat="fix_mat"/>
		<SolidDomain name="Part9" mat="moving_mat"/>
	</MeshDomains>
	<Boundary>
		<bc name="ZeroDisplacement3" node_set="ZeroDisplacement3" type="zero displacement">
			<x_dof>0</x_dof>
			<y_dof>1</y_dof>
			<z_dof>1</z_dof>
		</bc>
		<bc name="ZeroRotation3" node_set="ZeroRotation3" type="zero rotation">
			<u_dof>1</u_dof>
			<v_dof>1</v_dof>
			<w_dof>0</w_dof>
		</bc>
	</Boundary>
	<Rigid>
		<rigid_bc name="RigidConstraint1" type="rigid_fixed">
			<rb>fix_mat</rb>
			<Rx_dof>1</Rx_dof>
			<Ry_dof>1</Ry_dof>
			<Rz_dof>1</Rz_dof>
			<Ru_dof>1</Ru_dof>
			<Rv_dof>1</Rv_dof>
			<Rw_dof>1</Rw_dof>
		</rigid_bc>
	</Rigid>
	<Loads>
		<surface_load name="Pressure1" surface="Pressure1" type="pressure">
			<pressure lc="2">0.5</pressure>
			<symmetric_stiffness>1</symmetric_stiffness>
			<linear>0</linear>
			<shell_bottom>0</shell_bottom>
		</surface_load>
	</Loads>
	<Contact>
		<contact name="moving_surf" surface_pair="moving_surf" type="tied-facet-on-facet">
			<laugon>PENALTY</laugon>
			<tolerance>0.1</tolerance>
			<penalty>1</penalty>
			<minaug>0</minaug>
			<maxaug>10</maxaug>
			<search_tolerance>0.0001</search_tolerance>
			<gap_offset>0</gap_offset>
		</contact>
		<contact name="fix_surf" surface_pair="fix_surf" type="tied-facet-on-facet">
			<laugon>PENALTY</laugon>
			<tolerance>0.1</tolerance>
			<penalty>1</penalty>
			<minaug>0</minaug>
			<maxaug>10</maxaug>
			<search_tolerance>0.0001</search_tolerance>
			<gap_offset>0</gap_offset>
		</contact>
	</Contact>
	<LoadData>
		<load_controller id="1" name="LC1" type="loadcurve">
			<interpolate>LINEAR</interpolate>
			<extend>CONSTANT</extend>
			<points>
				<pt>0,0</pt>
				<pt>1,1</pt>
			</points>
		</load_controller>
		<load_controller id="2" name="LC2" type="loadcurve">
			<interpolate>LINEAR</interpolate>
			<extend>CONSTANT</extend>
			<points>
				<pt>0,0</pt>
				<pt>1,1</pt>
			</points>
		</load_controller>
	</LoadData>
	<Output>
		<plotfile type="febio">
			<var type="displacement"/>
			<var type="stress"/>
			<var type="relative volume"/>
			<var type="contact pressure"/>
			<var type="contact gap"/>
		</plotfile>
	</Output>
</febio_spec>
